# DISU package for MODFLOW-USG generated by Flopy 3.8.2
12120 2 73756 0 1 4 2 0 
  0  0
INTERNAL               1     (2I10) -1 #nodelay                       
      6060      6060
CONSTANT    1.000000E+01                           #top layer 1                   
CONSTANT    0.000000E+00                           #top layer 2                   
CONSTANT    0.000000E+00                           #bot layer 1                   
CONSTANT   -1.000000E+01                           #bot layer 2                   
INTERNAL               1 (6060E15.6) -1 #area layer 1                  
   3.844675E+00   3.844675E+00   3.844675E+00   3.844675E+00   3.844675E+00   3.844675E+00   3.844675E+00   3.844675E+00   3.844675E+00   3.844675E+00   3.844675E+00   3.844675E+00   3.844675E+00   3.844675E+00   3.844675E+00   3.844675E+00   3.844675E+00   3.844675E+00   3.844675E+00   3.844675E+00   3.844675E+00   3.844675E+00   3.844675E+00   3.844675E+00   3.844675E+00   3.844675E+00   3.844675E+00   3.844675E+00   3.844675E+00   3.844675E+00   3.844675E+00   3.844675E+00   3.844675E+00   3.844675E+00   3.844675E+00   3.844675E+00   3.844675E+00   3.844675E+00   3.844675E+00   3.844675E+00   3.844675E+00   3.844675E+00   3.844675E+00   3.844675E+00   3.844675E+00   3.844675E+00   3.844675E+00   3.844675E+00   3.844675E+00   3.844675E+00   3.844675E+00   3.844675E+00   3.844675E+00   3.844675E+00   3.844675E+00   3.844675E+00   3.844675E+00   3.844675E+00   3.844675E+00   3.844675E+00   3.844675E+00   3.844675E+00   3.844675E+00   3.844675E+00   3.844675E+00   3.844675E+00   3.844675E+00   3.844675E+00   3.844675E+00   9.611688E-01   9.611688E-01   9.611688E-01   9.611688E-01   3.844675E+00   3.844675E+00   3.844675E+00   3.844675E+00   3.844675E+00   3.844675E+00   3.844675E+00   3.844675E+00   3.844675E+00   3.844675E+00   3.844675E+00   3.844675E+00   3.844675E+00   3.844675E+00   3.844675E+00   3.844675E+00   3.844675E+00   3.844675E+00   3.844675E+00   3.844675E+00   3.844675E+00   3.844675E+00   3.844675E+00   3.844675E+00   3.844675E+00   3.844675E+00   3.844675E+00   3.844675E+00   3.844675E+00   3.844675E+00   3.844675E+00   3.844675E+00   3.844675E+00   3.844675E+00   3.844675E+00   3.844675E+00   3.844675E+00   3.844675E+00   3.844675E+00   3.844675E+00   3.844675E+00   3.844675E+00   3.844675E+00   3.844675E+00   3.844675E+00   3.844675E+00   3.844675E+00   3.844675E+00   3.844675E+00   9.611688E-01   9.611688E-01   9.611688E-01   2.402922E-01   2.402922E-01   2.402922E-01   2.402922E-01   2.402922E-01   2.402922E-01   2.402922E-01   2.402922E-01   9.611688E-01   6.007305E-02   6.007305E-02   6.007305E-02   6.007305E-02   2.402922E-01   2.402922E-01   2.402922E-01   9.611688E-01   3.844675E+00   3.844675E+00   3.844675E+00   3.844675E+00   3.844675E+00   3.844675E+00   3.844675E+00   3.844675E+00   3.844675E+00   3.844675E+00   3.844675E+00   3.844675E+00   3.844675E+00   3.844675E+00   3.844675E+00   3.844675E+00   3.844675E+00   3.844675E+00   3.844675E+00   3.844675E+00   3.844675E+00   3.844675E+00   3.844675E+00   3.844675E+00   3.844675E+00   3.844675E+00   3.844675E+00   3.844675E+00   3.844675E+00   3.844675E+00   3.844675E+00   3.844675E+00   3.844675E+00   3.844675E+00   3.844675E+00   3.844675E+00   3.844675E+00   3.844675E+00   3.844675E+00   3.844675E+00   3.844675E+00   3.844675E+00   3.844675E+00   3.844675E+00   3.844675E+00   3.844675E+00   3.844675E+00   3.844675E+00   3.844675E+00   9.611688E-01   9.611688E-01   9.611688E-01   9.611688E-01   9.611688E-01   9.611688E-01   9.611688E-01   9.611688E-01   3.844675E+00   3.844675E+00   3.844675E+00   3.844675E+00   3.844675E+00   3.844675E+00   3.844675E+00   3.844675E+00   3.844675E+00   3.844675E+00   3.844675E+00   3.844675E+00   3.844675E+00   3.844675E+00   3.844675E+00   3.844675E+00   3.844675E+00   3.844675E+00   3.844675E+00   3.844675E+00   3.844675E+00   3.844675E+00   3.844675E+00   3.844675E+00   3.844675E+00   3.844675E+00   3.844675E+00   3.844675E+00   3.844675E+00   3.844675E+00   3.844675E+00   3.844675E+00   3.844675E+00   3.844675E+00   3.844675E+00   3.844675E+00   3.844675E+00   3.844675E+00   3.844675E+00   3.844675E+00   3.844675E+00   3.844675E+00   3.844675E+00   3.844675E+00   3.844675E+00   3.844675E+00   3.844675E+00   3.844675E+00   3.844675E+00   3.844675E+00   3.844675E+00   3.844675E+00   3.844675E+00   3.844675E+00   3.844675E+00   3.844675E+00   3.844675E+00   3.844675E+00   3.844675E+00   3.844675E+00   3.844675E+00   3.844675E+00   3.844675E+00   3.844675E+00   3.844675E+00   3.844675E+00   3.844675E+00   3.844675E+00   3.844675E+00   3.844675E+00   3.844675E+00   3.844675E+00   3.844675E+00   3.844675E+00   3.844675E+00   3.844675E+00   3.844675E+00   3.844675E+00   3.844675E+00   3.844675E+00   3.844675E+00   3.844675E+00   3.844675E+00   3.844675E+00   3.844675E+00   3.844675E+00   3.844675E+00   9.611688E-01   9.611688E-01   9.611688E-01   9.611688E-01   9.611688E-01   9.611688E-01   9.611688E-01   9.611688E-01   3.844675E+00   3.844675E+00   3.844675E+00   3.844675E+00   3.844675E+00   3.844675E+00   3.844675E+00   3.844675E+00   3.844675E+00   3.844675E+00   3.844675E+00   3.844675E+00   3.844675E+00   3.844675E+00   3.844675E+00   3.844675E+00   3.844675E+00   3.844675E+00   3.844675E+00   3.844675E+00   3.844675E+00   3.844675E+00   3.844675E+00   3.844675E+00   3.844675E+00   3.844675E+00   3.844675E+00   3.844675E+00   3.844675E+00   3.844675E+00   3.844675E+00   3.844675E+00   3.844675E+00   3.844675E+00   3.844675E+00   3.844675E+00   3.844675E+00   3.844675E+00   3.844675E+00   3.844675E+00   3.844675E+00   3.844675E+00   3.844675E+00   3.844675E+00   3.844675E+00   3.844675E+00   3.844675E+00   3.844675E+00   9.611688E-01   9.611688E-01   9.611688E-01   9.611688E-01   9.611688E-01   9.611688E-01   9.611688E-01   9.611688E-01   9.611688E-01   9.611688E-01   9.611688E-01   9.611688E-01   9.611688E-01   9.611688E-01   9.611688E-01   9.611688E-01   3.844675E+00   3.844675E+00   3.844675E+00   3.844675E+00   3.844675E+00   3.844675E+00   3.844675E+00   3.844675E+00   3.844675E+00   3.844675E+00   3.844675E+00   3.844675E+00   3.844675E+00   3.844675E+00   3.844675E+00   3.844675E+00   3.844675E+00   3.844675E+00   3.844675E+00   3.844675E+00   3.844675E+00   3.844675E+00   3.844675E+00   3.844675E+00   3.844675E+00   3.844675E+00   3.844675E+00   3.844675E+00   3.844675E+00   3.844675E+00   3.844675E+00   3.844675E+00   3.844675E+00   3.844675E+00   3.844675E+00   3.844675E+00   3.844675E+00   3.844675E+00   3.844675E+00   3.844675E+00   3.844675E+00   3.844675E+00   3.844675E+00   3.844675E+00   3.844675E+00   3.844675E+00   3.844675E+00   9.611688E-01   9.611688E-01   9.611688E-01   9.611688E-01   9.611688E-01   9.611688E-01   9.611688E-01   9.611688E-01   9.611688E-01   9.611688E-01   9.611688E-01   9.611688E-01   9.611688E-01   9.611688E-01   9.611688E-01   9.611688E-01   3.844675E+00   3.844675E+00   3.844675E+00   3.844675E+00   3.844675E+00   3.844675E+00   3.844675E+00   3.844675E+00   3.844675E+00   3.844675E+00   3.844675E+00   3.844675E+00   3.844675E+00   3.844675E+00   3.844675E+00   3.844675E+00   3.844675E+00   3.844675E+00   3.844675E+00   3.844675E+00   3.844675E+00   3.844675E+00   3.844675E+00   3.844675E+00   3.844675E+00   3.844675E+00   3.844675E+00   3.844675E+00   3.844675E+00   3.844675E+00   3.844675E+00   3.844675E+00   3.844675E+00   3.844675E+00   3.844675E+00   3.844675E+00   3.844675E+00   3.844675E+00   3.844675E+00   3.844675E+00   3.844675E+00   3.844675E+00   3.844675E+00   3.844675E+00   3.844675E+00   3.844675E+00   9.611688E-01   9.611688E-01   9.611688E-01   9.611688E-01   9.611688E-01   9.611688E-01   9.611688E-01   9.611688E-01   9.611688E-01   9.611688E-01   9.611688E-01   9.611688E-01   9.611688E-01   9.611688E-01   9.611688E-01   9.611688E-01   9.611688E-01   9.611688E-01   9.611688E-01   9.611688E-01   9.611688E-01   9.611688E-01   9.611688E-01   9.611688E-01   3.844675E+00   3.844675E+00   3.844675E+00   3.844675E+00   3.844675E+00   3.844675E+00   3.844675E+00   3.844675E+00   3.844675E+00   3.844675E+00   3.844675E+00   3.844675E+00   3.844675E+00   3.844675E+00   3.844675E+00   3.844675E+00   3.844675E+00   3.844675E+00   3.844675E+00   3.844675E+00   3.844675E+00   3.844675E+00   3.844675E+00   3.844675E+00   3.844675E+00   3.844675E+00   3.844675E+00   3.844675E+00   3.844675E+00   3.844675E+00   3.844675E+00   3.844675E+00   3.844675E+00   3.844675E+00   3.844675E+00   3.844675E+00   3.844675E+00   3.844675E+00   3.844675E+00   3.844675E+00   3.844675E+00   3.844675E+00   3.844675E+00   3.844675E+00   9.611688E-01   9.611688E-01   9.611688E-01   9.611688E-01   9.611688E-01   9.611688E-01   9.611688E-01   9.611688E-01   9.611688E-01   9.611688E-01   9.611688E-01   9.611688E-01   9.611688E-01   9.611688E-01   9.611688E-01   9.611688E-01   9.611688E-01   9.611688E-01   9.611688E-01   9.611688E-01   9.611688E-01   9.611688E-01   9.611688E-01   9.611688E-01   9.611688E-01   9.611688E-01   9.611688E-01   9.611688E-01   9.611688E-01   9.611688E-01   9.611688E-01   9.611688E-01   3.844675E+00   3.844675E+00   3.844675E+00   3.844675E+00   3.844675E+00   3.844675E+00   3.844675E+00   3.844675E+00   3.844675E+00   3.844675E+00   3.844675E+00   3.844675E+00   3.844675E+00   3.844675E+00   3.844675E+00   3.844675E+00   3.844675E+00   3.844675E+00   3.844675E+00   3.844675E+00   3.844675E+00   3.844675E+00   3.844675E+00   3.844675E+00   3.844675E+00   3.844675E+00   3.844675E+00   3.844675E+00   3.844675E+00   3.844675E+00   3.844675E+00   3.844675E+00   3.844675E+00   3.844675E+00   3.844675E+00   3.844675E+00   3.844675E+00   3.844675E+00   3.844675E+00   3.844675E+00   3.844675E+00   3.844675E+00   9.611688E-01   9.611688E-01   9.611688E-01   9.611688E-01   9.611688E-01   9.611688E-01   9.611688E-01   9.611688E-01   9.611688E-01   9.611688E-01   9.611688E-01   9.611688E-01   9.611688E-01   9.611688E-01   9.611688E-01   9.611688E-01   9.611688E-01   9.611688E-01   9.611688E-01   9.611688E-01   9.611688E-01   9.611688E-01   9.611688E-01   9.611688E-01   9.611688E-01   9.611688E-01   9.611688E-01   9.611688E-01   9.611688E-01   9.611688E-01   9.611688E-01   9.611688E-01   9.611688E-01   9.611688E-01   9.611688E-01   9.611688E-01   3.844675E+00   3.844675E+00   3.844675E+00   3.844675E+00   3.844675E+00   3.844675E+00   3.844675E+00   3.844675E+00   3.844675E+00   3.844675E+00   3.844675E+00   3.844675E+00   3.844675E+00   3.844675E+00   3.844675E+00   3.844675E+00   3.844675E+00   3.844675E+00   3.844675E+00   3.844675E+00   3.844675E+00   3.844675E+00   3.844675E+00   3.844675E+00   3.844675E+00   3.844675E+00   3.844675E+00   3.844675E+00   3.844675E+00   3.844675E+00   3.844675E+00   3.844675E+00   3.844675E+00   3.844675E+00   3.844675E+00   3.844675E+00   3.844675E+00   3.844675E+00   3.844675E+00   3.844675E+00   3.844675E+00   3.844675E+00   9.611688E-01   9.611688E-01   9.611688E-01   9.611688E-01   9.611688E-01   9.611688E-01   9.611688E-01   9.611688E-01   9.611688E-01   9.611688E-01   9.611688E-01   9.611688E-01   9.611688E-01   9.611688E-01   9.611688E-01   9.611688E-01   9.611688E-01   9.611688E-01   9.611688E-01   9.611688E-01   9.611688E-01   9.611688E-01   9.611688E-01   9.611688E-01   9.611688E-01   9.611688E-01   9.611688E-01   9.611688E-01   9.611688E-01   9.611688E-01   9.611688E-01   9.611688E-01   9.611688E-01   9.611688E-01   9.611688E-01   9.611688E-01   9.611688E-01   9.611688E-01   9.611688E-01   9.611688E-01   3.844675E+00   3.844675E+00   3.844675E+00   3.844675E+00   3.844675E+00   3.844675E+00   3.844675E+00   9.611688E-01   9.611688E-01   9.611688E-01   2.402922E-01   2.402922E-01   2.402922E-01   2.402922E-01   9.611688E-01   9.611688E-01   2.402922E-01   2.402922E-01   6.007305E-02   6.007305E-02   6.007305E-02   6.007305E-02   6.007305E-02   6.007305E-02   6.007305E-02   6.007305E-02   2.402922E-01   2.402922E-01   2.402922E-01   2.402922E-01   9.611688E-01   9.611688E-01   9.611688E-01   9.611688E-01   3.844675E+00   3.844675E+00   3.844675E+00   3.844675E+00   3.844675E+00   3.844675E+00   3.844675E+00   3.844675E+00   3.844675E+00   3.844675E+00   3.844675E+00   3.844675E+00   3.844675E+00   3.844675E+00   3.844675E+00   3.844675E+00   3.844675E+00   3.844675E+00   3.844675E+00   3.844675E+00   3.844675E+00   3.844675E+00   3.844675E+00   3.844675E+00   3.844675E+00   3.844675E+00   3.844675E+00   3.844675E+00   3.844675E+00   3.844675E+00   3.844675E+00   9.611688E-01   9.611688E-01   9.611688E-01   9.611688E-01   9.611688E-01   9.611688E-01   9.611688E-01   9.611688E-01   9.611688E-01   9.611688E-01   9.611688E-01   9.611688E-01   9.611688E-01   9.611688E-01   9.611688E-01   9.611688E-01   9.611688E-01   9.611688E-01   9.611688E-01   9.611688E-01   9.611688E-01   9.611688E-01   9.611688E-01   9.611688E-01   9.611688E-01   9.611688E-01   9.611688E-01   9.611688E-01   9.611688E-01   9.611688E-01   9.611688E-01   9.611688E-01   9.611688E-01   9.611688E-01   9.611688E-01   9.611688E-01   9.611688E-01   9.611688E-01   9.611688E-01   9.611688E-01   9.611688E-01   9.611688E-01   9.611688E-01   9.611688E-01   3.844675E+00   3.844675E+00   3.844675E+00   3.844675E+00   3.844675E+00   9.611688E-01   9.611688E-01   9.611688E-01   9.611688E-01   2.402922E-01   2.402922E-01   2.402922E-01   2.402922E-01   2.402922E-01   6.007305E-02   6.007305E-02   6.007305E-02   6.007305E-02   6.007305E-02   6.007305E-02   6.007305E-02   6.007305E-02   6.007305E-02   6.007305E-02   6.007305E-02   6.007305E-02   2.402922E-01   2.402922E-01   2.402922E-01   6.007305E-02   6.007305E-02   6.007305E-02   6.007305E-02   6.007305E-02   6.007305E-02   6.007305E-02   6.007305E-02   2.402922E-01   6.007305E-02   6.007305E-02   6.007305E-02   6.007305E-02   2.402922E-01   6.007305E-02   6.007305E-02   6.007305E-02   6.007305E-02   2.402922E-01   2.402922E-01   2.402922E-01   9.611688E-01   9.611688E-01   9.611688E-01   3.844675E+00   3.844675E+00   3.844675E+00   3.844675E+00   3.844675E+00   3.844675E+00   3.844675E+00   3.844675E+00   3.844675E+00   3.844675E+00   3.844675E+00   3.844675E+00   3.844675E+00   3.844675E+00   3.844675E+00   3.844675E+00   3.844675E+00   3.844675E+00   3.844675E+00   3.844675E+00   3.844675E+00   3.844675E+00   3.844675E+00   3.844675E+00   3.844675E+00   3.844675E+00   3.844675E+00   3.844675E+00   3.844675E+00   3.844675E+00   3.844675E+00   3.844675E+00   9.611688E-01   9.611688E-01   9.611688E-01   9.611688E-01   9.611688E-01   9.611688E-01   9.611688E-01   9.611688E-01   9.611688E-01   9.611688E-01   9.611688E-01   9.611688E-01   9.611688E-01   9.611688E-01   9.611688E-01   9.611688E-01   9.611688E-01   9.611688E-01   9.611688E-01   9.611688E-01   9.611688E-01   9.611688E-01   9.611688E-01   9.611688E-01   9.611688E-01   9.611688E-01   9.611688E-01   9.611688E-01   9.611688E-01   9.611688E-01   9.611688E-01   9.611688E-01   9.611688E-01   9.611688E-01   9.611688E-01   9.611688E-01   9.611688E-01   9.611688E-01   9.611688E-01   9.611688E-01   9.611688E-01   9.611688E-01   9.611688E-01   9.611688E-01   3.844675E+00   3.844675E+00   3.844675E+00   3.844675E+00   9.611688E-01   9.611688E-01   9.611688E-01   9.611688E-01   9.611688E-01   2.402922E-01   2.402922E-01   2.402922E-01   6.007305E-02   6.007305E-02   6.007305E-02   6.007305E-02   2.402922E-01   2.402922E-01   2.402922E-01   2.402922E-01   6.007305E-02   6.007305E-02   6.007305E-02   6.007305E-02   6.007305E-02   6.007305E-02   6.007305E-02   6.007305E-02   6.007305E-02   6.007305E-02   6.007305E-02   6.007305E-02   2.402922E-01   6.007305E-02   6.007305E-02   6.007305E-02   6.007305E-02   6.007305E-02   6.007305E-02   6.007305E-02   6.007305E-02   6.007305E-02   6.007305E-02   6.007305E-02   6.007305E-02   2.402922E-01   2.402922E-01   2.402922E-01   2.402922E-01   2.402922E-01   2.402922E-01   2.402922E-01   2.402922E-01   2.402922E-01   9.611688E-01   9.611688E-01   9.611688E-01   9.611688E-01   9.611688E-01   3.844675E+00   3.844675E+00   3.844675E+00   3.844675E+00   3.844675E+00   3.844675E+00   3.844675E+00   3.844675E+00   3.844675E+00   3.844675E+00   3.844675E+00   3.844675E+00   3.844675E+00   3.844675E+00   3.844675E+00   3.844675E+00   3.844675E+00   3.844675E+00   3.844675E+00   3.844675E+00   3.844675E+00   3.844675E+00   3.844675E+00   3.844675E+00   3.844675E+00   3.844675E+00   3.844675E+00   3.844675E+00   3.844675E+00   3.844675E+00   3.844675E+00   3.844675E+00   9.611688E-01   9.611688E-01   9.611688E-01   9.611688E-01   9.611688E-01   9.611688E-01   9.611688E-01   9.611688E-01   9.611688E-01   9.611688E-01   9.611688E-01   9.611688E-01   9.611688E-01   9.611688E-01   9.611688E-01   9.611688E-01   9.611688E-01   9.611688E-01   9.611688E-01   9.611688E-01   9.611688E-01   9.611688E-01   9.611688E-01   9.611688E-01   9.611688E-01   9.611688E-01   9.611688E-01   9.611688E-01   9.611688E-01   9.611688E-01   9.611688E-01   9.611688E-01   9.611688E-01   9.611688E-01   9.611688E-01   9.611688E-01   9.611688E-01   9.611688E-01   9.611688E-01   9.611688E-01   9.611688E-01   9.611688E-01   9.611688E-01   9.611688E-01   9.611688E-01   9.611688E-01   9.611688E-01   9.611688E-01   3.844675E+00   3.844675E+00   3.844675E+00   9.611688E-01   2.402922E-01   2.402922E-01   2.402922E-01   2.402922E-01   9.611688E-01   2.402922E-01   6.007305E-02   6.007305E-02   6.007305E-02   6.007305E-02   2.402922E-01   6.007305E-02   6.007305E-02   6.007305E-02   6.007305E-02   2.402922E-01   6.007305E-02   6.007305E-02   6.007305E-02   6.007305E-02   6.007305E-02   6.007305E-02   6.007305E-02   6.007305E-02   6.007305E-02   6.007305E-02   6.007305E-02   6.007305E-02   6.007305E-02   6.007305E-02   6.007305E-02   6.007305E-02   2.402922E-01   2.402922E-01   2.402922E-01   6.007305E-02   6.007305E-02   6.007305E-02   6.007305E-02   2.402922E-01   2.402922E-01   2.402922E-01   9.611688E-01   9.611688E-01   9.611688E-01   9.611688E-01   9.611688E-01   3.844675E+00   3.844675E+00   3.844675E+00   3.844675E+00   3.844675E+00   3.844675E+00   3.844675E+00   3.844675E+00   3.844675E+00   3.844675E+00   3.844675E+00   3.844675E+00   3.844675E+00   3.844675E+00   3.844675E+00   3.844675E+00   3.844675E+00   3.844675E+00   3.844675E+00   3.844675E+00   9.611688E-01   9.611688E-01   9.611688E-01   9.611688E-01   9.611688E-01   9.611688E-01   2.402922E-01   2.402922E-01   2.402922E-01   6.007305E-02   6.007305E-02   6.007305E-02   6.007305E-02   2.402922E-01   2.402922E-01   2.402922E-01   2.402922E-01   9.611688E-01   9.611688E-01   9.611688E-01   9.611688E-01   3.844675E+00   3.844675E+00   3.844675E+00   3.844675E+00   3.844675E+00   3.844675E+00   3.844675E+00   3.844675E+00   3.844675E+00   3.844675E+00   9.611688E-01   9.611688E-01   9.611688E-01   9.611688E-01   9.611688E-01   9.611688E-01   9.611688E-01   9.611688E-01   9.611688E-01   9.611688E-01   9.611688E-01   9.611688E-01   9.611688E-01   9.611688E-01   9.611688E-01   9.611688E-01   9.611688E-01   9.611688E-01   9.611688E-01   9.611688E-01   9.611688E-01   9.611688E-01   9.611688E-01   9.611688E-01   9.611688E-01   9.611688E-01   9.611688E-01   9.611688E-01   9.611688E-01   9.611688E-01   9.611688E-01   9.611688E-01   9.611688E-01   9.611688E-01   9.611688E-01   9.611688E-01   9.611688E-01   9.611688E-01   9.611688E-01   9.611688E-01   9.611688E-01   9.611688E-01   9.611688E-01   9.611688E-01   9.611688E-01   9.611688E-01   9.611688E-01   9.611688E-01   9.611688E-01   9.611688E-01   9.611688E-01   9.611688E-01   3.844675E+00   9.611688E-01   9.611688E-01   9.611688E-01   2.402922E-01   2.402922E-01   2.402922E-01   6.007305E-02   6.007305E-02   6.007305E-02   6.007305E-02   2.402922E-01   2.402922E-01   2.402922E-01   6.007305E-02   6.007305E-02   6.007305E-02   6.007305E-02   6.007305E-02   6.007305E-02   6.007305E-02   6.007305E-02   6.007305E-02   6.007305E-02   6.007305E-02   6.007305E-02   6.007305E-02   6.007305E-02   6.007305E-02   6.007305E-02   2.402922E-01   6.007305E-02   6.007305E-02   6.007305E-02   6.007305E-02   6.007305E-02   6.007305E-02   6.007305E-02   6.007305E-02   6.007305E-02   6.007305E-02   6.007305E-02   6.007305E-02   2.402922E-01   2.402922E-01   2.402922E-01   2.402922E-01   2.402922E-01   2.402922E-01   2.402922E-01   2.402922E-01   2.402922E-01   9.611688E-01   9.611688E-01   9.611688E-01   3.844675E+00   3.844675E+00   3.844675E+00   3.844675E+00   3.844675E+00   3.844675E+00   3.844675E+00   3.844675E+00   3.844675E+00   3.844675E+00   3.844675E+00   3.844675E+00   3.844675E+00   3.844675E+00   3.844675E+00   3.844675E+00   3.844675E+00   3.844675E+00   3.844675E+00   3.844675E+00   3.844675E+00   9.611688E-01   9.611688E-01   9.611688E-01   9.611688E-01   2.402922E-01   2.402922E-01   2.402922E-01   2.402922E-01   9.611688E-01   9.611688E-01   9.611688E-01   3.844675E+00   3.844675E+00   3.844675E+00   3.844675E+00   3.844675E+00   3.844675E+00   3.844675E+00   3.844675E+00   3.844675E+00   3.844675E+00   3.844675E+00   9.611688E-01   9.611688E-01   9.611688E-01   9.611688E-01   9.611688E-01   9.611688E-01   9.611688E-01   9.611688E-01   9.611688E-01   9.611688E-01   9.611688E-01   9.611688E-01   9.611688E-01   9.611688E-01   9.611688E-01   9.611688E-01   9.611688E-01   9.611688E-01   9.611688E-01   9.611688E-01   9.611688E-01   9.611688E-01   9.611688E-01   9.611688E-01   9.611688E-01   9.611688E-01   9.611688E-01   9.611688E-01   9.611688E-01   9.611688E-01   9.611688E-01   9.611688E-01   9.611688E-01   9.611688E-01   9.611688E-01   9.611688E-01   9.611688E-01   9.611688E-01   9.611688E-01   9.611688E-01   9.611688E-01   9.611688E-01   9.611688E-01   9.611688E-01   9.611688E-01   9.611688E-01   9.611688E-01   9.611688E-01   9.611688E-01   9.611688E-01   9.611688E-01   9.611688E-01   9.611688E-01   9.611688E-01   9.611688E-01   2.402922E-01   2.402922E-01   2.402922E-01   2.402922E-01   2.402922E-01   2.402922E-01   2.402922E-01   2.402922E-01   2.402922E-01   6.007305E-02   6.007305E-02   6.007305E-02   6.007305E-02   6.007305E-02   6.007305E-02   6.007305E-02   6.007305E-02   6.007305E-02   6.007305E-02   6.007305E-02   6.007305E-02   2.402922E-01   6.007305E-02   6.007305E-02   6.007305E-02   6.007305E-02   6.007305E-02   6.007305E-02   6.007305E-02   6.007305E-02   6.007305E-02   6.007305E-02   6.007305E-02   6.007305E-02   6.007305E-02   6.007305E-02   6.007305E-02   6.007305E-02   2.402922E-01   2.402922E-01   2.402922E-01   2.402922E-01   2.402922E-01   2.402922E-01   2.402922E-01   9.611688E-01   9.611688E-01   9.611688E-01   3.844675E+00   3.844675E+00   3.844675E+00   3.844675E+00   3.844675E+00   3.844675E+00   3.844675E+00   3.844675E+00   3.844675E+00   3.844675E+00   3.844675E+00   3.844675E+00   3.844675E+00   3.844675E+00   3.844675E+00   3.844675E+00   3.844675E+00   3.844675E+00   9.611688E-01   9.611688E-01   9.611688E-01   9.611688E-01   9.611688E-01   9.611688E-01   9.611688E-01   9.611688E-01   3.844675E+00   3.844675E+00   3.844675E+00   3.844675E+00   3.844675E+00   3.844675E+00   3.844675E+00   3.844675E+00   3.844675E+00   3.844675E+00   3.844675E+00   3.844675E+00   3.844675E+00   3.844675E+00   3.844675E+00   9.611688E-01   9.611688E-01   9.611688E-01   9.611688E-01   9.611688E-01   9.611688E-01   9.611688E-01   9.611688E-01   9.611688E-01   9.611688E-01   9.611688E-01   9.611688E-01   9.611688E-01   9.611688E-01   9.611688E-01   9.611688E-01   9.611688E-01   9.611688E-01   9.611688E-01   9.611688E-01   9.611688E-01   9.611688E-01   9.611688E-01   9.611688E-01   9.611688E-01   9.611688E-01   9.611688E-01   9.611688E-01   9.611688E-01   9.611688E-01   9.611688E-01   9.611688E-01   9.611688E-01   9.611688E-01   9.611688E-01   9.611688E-01   9.611688E-01   9.611688E-01   9.611688E-01   9.611688E-01   9.611688E-01   9.611688E-01   9.611688E-01   9.611688E-01   9.611688E-01   9.611688E-01   9.611688E-01   9.611688E-01   9.611688E-01   9.611688E-01   9.611688E-01   9.611688E-01   9.611688E-01   2.402922E-01   2.402922E-01   2.402922E-01   6.007305E-02   6.007305E-02   6.007305E-02   6.007305E-02   2.402922E-01   2.402922E-01   2.402922E-01   6.007305E-02   6.007305E-02   6.007305E-02   6.007305E-02   6.007305E-02   6.007305E-02   6.007305E-02   6.007305E-02   6.007305E-02   6.007305E-02   6.007305E-02   6.007305E-02   6.007305E-02   6.007305E-02   6.007305E-02   6.007305E-02   2.402922E-01   6.007305E-02   6.007305E-02   6.007305E-02   6.007305E-02   2.402922E-01   6.007305E-02   6.007305E-02   6.007305E-02   6.007305E-02   2.402922E-01   9.611688E-01   2.402922E-01   2.402922E-01   2.402922E-01   2.402922E-01   9.611688E-01   3.844675E+00   3.844675E+00   3.844675E+00   3.844675E+00   3.844675E+00   3.844675E+00   3.844675E+00   3.844675E+00   3.844675E+00   3.844675E+00   3.844675E+00   3.844675E+00   3.844675E+00   3.844675E+00   3.844675E+00   3.844675E+00   3.844675E+00   3.844675E+00   3.844675E+00   9.611688E-01   2.402922E-01   2.402922E-01   2.402922E-01   2.402922E-01   9.611688E-01   9.611688E-01   2.402922E-01   2.402922E-01   6.007305E-02   6.007305E-02   6.007305E-02   6.007305E-02   2.402922E-01   9.611688E-01   2.402922E-01   2.402922E-01   2.402922E-01   2.402922E-01   9.611688E-01   3.844675E+00   3.844675E+00   3.844675E+00   3.844675E+00   3.844675E+00   3.844675E+00   3.844675E+00   3.844675E+00   3.844675E+00   3.844675E+00   3.844675E+00   3.844675E+00   3.844675E+00   3.844675E+00   3.844675E+00   9.611688E-01   9.611688E-01   9.611688E-01   9.611688E-01   9.611688E-01   9.611688E-01   9.611688E-01   9.611688E-01   9.611688E-01   9.611688E-01   9.611688E-01   9.611688E-01   9.611688E-01   9.611688E-01   9.611688E-01   9.611688E-01   9.611688E-01   9.611688E-01   9.611688E-01   9.611688E-01   9.611688E-01   9.611688E-01   9.611688E-01   9.611688E-01   9.611688E-01   9.611688E-01   9.611688E-01   9.611688E-01   9.611688E-01   9.611688E-01   9.611688E-01   9.611688E-01   9.611688E-01   9.611688E-01   9.611688E-01   9.611688E-01   9.611688E-01   9.611688E-01   9.611688E-01   9.611688E-01   9.611688E-01   9.611688E-01   9.611688E-01   9.611688E-01   9.611688E-01   9.611688E-01   9.611688E-01   9.611688E-01   9.611688E-01   2.402922E-01   2.402922E-01   2.402922E-01   2.402922E-01   2.402922E-01   2.402922E-01   2.402922E-01   2.402922E-01   2.402922E-01   6.007305E-02   6.007305E-02   6.007305E-02   6.007305E-02   6.007305E-02   6.007305E-02   6.007305E-02   6.007305E-02   6.007305E-02   6.007305E-02   6.007305E-02   6.007305E-02   6.007305E-02   6.007305E-02   6.007305E-02   6.007305E-02   6.007305E-02   6.007305E-02   6.007305E-02   6.007305E-02   6.007305E-02   6.007305E-02   6.007305E-02   6.007305E-02   2.402922E-01   2.402922E-01   2.402922E-01   2.402922E-01   2.402922E-01   6.007305E-02   6.007305E-02   6.007305E-02   6.007305E-02   2.402922E-01   2.402922E-01   2.402922E-01   9.611688E-01   9.611688E-01   9.611688E-01   9.611688E-01   9.611688E-01   3.844675E+00   3.844675E+00   3.844675E+00   3.844675E+00   3.844675E+00   3.844675E+00   3.844675E+00   3.844675E+00   3.844675E+00   3.844675E+00   3.844675E+00   3.844675E+00   3.844675E+00   3.844675E+00   3.844675E+00   3.844675E+00   3.844675E+00   3.844675E+00   3.844675E+00   3.844675E+00   9.611688E-01   9.611688E-01   9.611688E-01   9.611688E-01   3.844675E+00   3.844675E+00   3.844675E+00   3.844675E+00   3.844675E+00   3.844675E+00   3.844675E+00   3.844675E+00   3.844675E+00   3.844675E+00   3.844675E+00   3.844675E+00   3.844675E+00   3.844675E+00   3.844675E+00   9.611688E-01   9.611688E-01   9.611688E-01   9.611688E-01   9.611688E-01   9.611688E-01   9.611688E-01   9.611688E-01   9.611688E-01   9.611688E-01   9.611688E-01   9.611688E-01   9.611688E-01   9.611688E-01   9.611688E-01   9.611688E-01   9.611688E-01   9.611688E-01   9.611688E-01   9.611688E-01   9.611688E-01   9.611688E-01   9.611688E-01   9.611688E-01   9.611688E-01   9.611688E-01   9.611688E-01   9.611688E-01   9.611688E-01   9.611688E-01   9.611688E-01   9.611688E-01   9.611688E-01   9.611688E-01   9.611688E-01   9.611688E-01   9.611688E-01   9.611688E-01   9.611688E-01   9.611688E-01   9.611688E-01   9.611688E-01   9.611688E-01   9.611688E-01   9.611688E-01   9.611688E-01   9.611688E-01   2.402922E-01   2.402922E-01   2.402922E-01   6.007305E-02   6.007305E-02   6.007305E-02   6.007305E-02   2.402922E-01   6.007305E-02   6.007305E-02   6.007305E-02   6.007305E-02   2.402922E-01   6.007305E-02   6.007305E-02   6.007305E-02   6.007305E-02   6.007305E-02   6.007305E-02   6.007305E-02   6.007305E-02   2.402922E-01   2.402922E-01   2.402922E-01   6.007305E-02   6.007305E-02   6.007305E-02   6.007305E-02   6.007305E-02   6.007305E-02   6.007305E-02   6.007305E-02   6.007305E-02   6.007305E-02   6.007305E-02   6.007305E-02   2.402922E-01   2.402922E-01   2.402922E-01   2.402922E-01   2.402922E-01   9.611688E-01   9.611688E-01   9.611688E-01   9.611688E-01   9.611688E-01   9.611688E-01   9.611688E-01   9.611688E-01   3.844675E+00   3.844675E+00   3.844675E+00   3.844675E+00   3.844675E+00   3.844675E+00   3.844675E+00   3.844675E+00   3.844675E+00   3.844675E+00   3.844675E+00   3.844675E+00   3.844675E+00   3.844675E+00   3.844675E+00   3.844675E+00   3.844675E+00   3.844675E+00   3.844675E+00   3.844675E+00   3.844675E+00   9.611688E-01   9.611688E-01   9.611688E-01   2.402922E-01   2.402922E-01   2.402922E-01   2.402922E-01   9.611688E-01   9.611688E-01   9.611688E-01   9.611688E-01   3.844675E+00   3.844675E+00   3.844675E+00   3.844675E+00   3.844675E+00   3.844675E+00   3.844675E+00   3.844675E+00   3.844675E+00   3.844675E+00   3.844675E+00   3.844675E+00   3.844675E+00   9.611688E-01   9.611688E-01   9.611688E-01   9.611688E-01   9.611688E-01   9.611688E-01   9.611688E-01   9.611688E-01   9.611688E-01   9.611688E-01   9.611688E-01   9.611688E-01   9.611688E-01   9.611688E-01   9.611688E-01   9.611688E-01   9.611688E-01   9.611688E-01   9.611688E-01   9.611688E-01   9.611688E-01   9.611688E-01   9.611688E-01   9.611688E-01   9.611688E-01   9.611688E-01   9.611688E-01   9.611688E-01   9.611688E-01   9.611688E-01   9.611688E-01   9.611688E-01 