# File generated by Flopy version 3.8.2 on 11/05/2024 at 17:39:17.
BEGIN options
END options

BEGIN dimensions
  MAXBOUND  2012
END dimensions

BEGIN period  1
  1 2 5.60074768E+01 1.00000000E-02 5.50074768E+01
  1 10 5.60074768E+01 1.00000000E-02 5.50074768E+01
  1 12 5.60074768E+01 1.00000000E-02 5.50074768E+01
  1 19 5.60074768E+01 1.00000000E-02 5.50074768E+01
  1 29 5.70000000E+01 1.00000000E-02 5.60000000E+01
  1 41 5.60149536E+01 1.00000000E-02 5.50149536E+01
  1 51 5.60149536E+01 1.00000000E-02 5.50149536E+01
  1 53 5.60127640E+01 1.00000000E-02 5.50127640E+01
  1 54 5.60149536E+01 1.00000000E-02 5.50149536E+01
  1 55 5.60149536E+01 1.00000000E-02 5.50149536E+01
  1 56 5.60149536E+01 1.00000000E-02 5.50149536E+01
  1 60 5.60149536E+01 1.00000000E-02 5.50149536E+01
  1 62 5.60149536E+01 1.00000000E-02 5.50149536E+01
  1 63 5.60149536E+01 1.00000000E-02 5.50149536E+01
  1 66 5.60149536E+01 1.00000000E-02 5.50149536E+01
  1 70 5.60149536E+01 1.00000000E-02 5.50149536E+01
  1 72 5.60127640E+01 1.00000000E-02 5.50127640E+01
  1 74 5.60149536E+01 1.00000000E-02 5.50149536E+01
  1 75 5.60149536E+01 1.00000000E-02 5.50149536E+01
  1 76 5.60149536E+01 1.00000000E-02 5.50149536E+01
  1 77 5.60149536E+01 1.00000000E-02 5.50149536E+01
  1 78 5.60149536E+01 1.00000000E-02 5.50149536E+01
  1 81 5.60127640E+01 1.00000000E-02 5.50127640E+01
  1 82 5.60202408E+01 1.00000000E-02 5.50202408E+01
  1 83 5.60202408E+01 1.00000000E-02 5.50202408E+01
  1 84 5.60202408E+01 1.00000000E-02 5.50202408E+01
  1 86 5.60202408E+01 1.00000000E-02 5.50202408E+01
  1 87 5.60202408E+01 1.00000000E-02 5.50202408E+01
  1 88 5.60202408E+01 1.00000000E-02 5.50202408E+01
  1 89 5.60202408E+01 1.00000000E-02 5.50202408E+01
  1 90 5.60180511E+01 1.00000000E-02 5.50180511E+01
  1 92 5.60202408E+01 1.00000000E-02 5.50202408E+01
  1 93 5.60202408E+01 1.00000000E-02 5.50202408E+01
  1 94 5.60202408E+01 1.00000000E-02 5.50202408E+01
  1 98 5.60202408E+01 1.00000000E-02 5.50202408E+01
  1 101 5.60180511E+01 1.00000000E-02 5.50180511E+01
  1 102 5.60202408E+01 1.00000000E-02 5.50202408E+01
  1 103 5.60202408E+01 1.00000000E-02 5.50202408E+01
  1 105 5.60202408E+01 1.00000000E-02 5.50202408E+01
  1 107 5.60202408E+01 1.00000000E-02 5.50202408E+01
  1 110 5.60180511E+01 1.00000000E-02 5.50180511E+01
  1 111 5.60255280E+01 1.00000000E-02 5.50255280E+01
  1 112 5.60255280E+01 1.00000000E-02 5.50255280E+01
  1 113 5.60255280E+01 1.00000000E-02 5.50255280E+01
  1 118 5.60255280E+01 1.00000000E-02 5.50255280E+01
  1 119 5.60277176E+01 1.00000000E-02 5.50277176E+01
  1 120 5.60255280E+01 1.00000000E-02 5.50255280E+01
  1 121 5.60255280E+01 1.00000000E-02 5.50255280E+01
  1 122 5.60277176E+01 1.00000000E-02 5.50277176E+01
  1 123 5.60255280E+01 1.00000000E-02 5.50255280E+01
  1 129 5.60255280E+01 1.00000000E-02 5.50255280E+01
  1 133 5.60277176E+01 1.00000000E-02 5.50277176E+01
  1 136 5.60277176E+01 1.00000000E-02 5.50277176E+01
  1 148 5.60255280E+01 1.00000000E-02 5.50255280E+01
  1 149 5.60255280E+01 1.00000000E-02 5.50255280E+01
  1 150 5.60255280E+01 1.00000000E-02 5.50255280E+01
  1 151 5.60277176E+01 1.00000000E-02 5.50277176E+01
  1 152 5.60277176E+01 1.00000000E-02 5.50277176E+01
  1 158 5.60330048E+01 1.00000000E-02 5.50330048E+01
  1 159 5.60277176E+01 1.00000000E-02 5.50277176E+01
  1 160 5.70000000E+01 1.00000000E-02 5.60000000E+01
  1 161 5.70000000E+01 1.00000000E-02 5.60000000E+01
  1 162 5.60255280E+01 1.00000000E-02 5.50255280E+01
  1 163 5.60330048E+01 1.00000000E-02 5.50330048E+01
  1 167 5.70000000E+01 1.00000000E-02 5.60000000E+01
  1 168 5.60330048E+01 1.00000000E-02 5.50330048E+01
  1 169 5.60330048E+01 1.00000000E-02 5.50330048E+01
  1 171 5.70000000E+01 1.00000000E-02 5.60000000E+01
  1 172 5.60330048E+01 1.00000000E-02 5.50330048E+01
  1 173 5.70000000E+01 1.00000000E-02 5.60000000E+01
  1 174 5.60330048E+01 1.00000000E-02 5.50330048E+01
  1 175 5.70000000E+01 1.00000000E-02 5.60000000E+01
  1 180 5.70000000E+01 1.00000000E-02 5.60000000E+01
  1 182 5.70000000E+01 1.00000000E-02 5.60000000E+01
  1 185 5.60330048E+01 1.00000000E-02 5.50330048E+01
  1 186 5.60382919E+01 1.00000000E-02 5.50382919E+01
  1 187 5.60330048E+01 1.00000000E-02 5.50330048E+01
  1 191 5.60330048E+01 1.00000000E-02 5.50330048E+01
  1 193 5.70000000E+01 1.00000000E-02 5.60000000E+01
  1 194 6.00000000E+01 1.00000000E-02 5.90000000E+01
  1 195 6.00000000E+01 1.00000000E-02 5.90000000E+01
  1 196 5.60382919E+01 1.00000000E-02 5.50382919E+01
  1 198 5.60404816E+01 1.00000000E-02 5.50404816E+01
  1 200 5.60382919E+01 1.00000000E-02 5.50382919E+01
  1 202 6.00000000E+01 1.00000000E-02 5.90000000E+01
  1 203 6.00000000E+01 1.00000000E-02 5.90000000E+01
  1 204 5.60382919E+01 1.00000000E-02 5.50382919E+01
  1 205 5.60382919E+01 1.00000000E-02 5.50382919E+01
  1 209 5.60382919E+01 1.00000000E-02 5.50382919E+01
  1 211 6.00000000E+01 1.00000000E-02 5.90000000E+01
  1 213 6.00000000E+01 1.00000000E-02 5.90000000E+01
  1 214 5.60382919E+01 1.00000000E-02 5.50382919E+01
  1 216 6.00000000E+01 1.00000000E-02 5.90000000E+01
  1 217 5.60404816E+01 1.00000000E-02 5.50404816E+01
  1 219 5.60382919E+01 1.00000000E-02 5.50382919E+01
  1 224 5.60382919E+01 1.00000000E-02 5.50382919E+01
  1 225 5.90000000E+01 1.00000000E-02 5.80000000E+01
  1 226 5.60382919E+01 1.00000000E-02 5.50382919E+01
  1 227 5.70000000E+01 1.00000000E-02 5.60000000E+01
  1 229 5.70000000E+01 1.00000000E-02 5.60000000E+01
  1 230 5.90000000E+01 1.00000000E-02 5.80000000E+01
  1 235 5.90000000E+01 1.00000000E-02 5.80000000E+01
  1 238 5.70000000E+01 1.00000000E-02 5.60000000E+01
  1 242 5.70000000E+01 1.00000000E-02 5.60000000E+01
  1 247 5.70000000E+01 1.00000000E-02 5.60000000E+01
  1 249 5.70000000E+01 1.00000000E-02 5.60000000E+01
  1 250 5.70000000E+01 1.00000000E-02 5.60000000E+01
  1 252 5.70000000E+01 1.00000000E-02 5.60000000E+01
  1 253 5.70000000E+01 1.00000000E-02 5.60000000E+01
  1 254 5.70000000E+01 1.00000000E-02 5.60000000E+01
  1 258 5.90000000E+01 1.00000000E-02 5.80000000E+01
  1 261 5.70000000E+01 1.00000000E-02 5.60000000E+01
  1 262 5.70000000E+01 1.00000000E-02 5.60000000E+01
  1 263 5.70000000E+01 1.00000000E-02 5.60000000E+01
  1 266 5.70000000E+01 1.00000000E-02 5.60000000E+01
  1 268 5.70000000E+01 1.00000000E-02 5.60000000E+01
  1 269 5.70052872E+01 1.00000000E-02 5.60052872E+01
  1 271 5.70052872E+01 1.00000000E-02 5.60052872E+01
  1 272 5.90000000E+01 1.00000000E-02 5.80000000E+01
  1 273 5.70000000E+01 1.00000000E-02 5.60000000E+01
  1 274 5.70052872E+01 1.00000000E-02 5.60052872E+01
  1 276 5.70074768E+01 1.00000000E-02 5.60074768E+01
  1 280 5.70074768E+01 1.00000000E-02 5.60074768E+01
  1 281 5.70052872E+01 1.00000000E-02 5.60052872E+01
  1 283 5.70074768E+01 1.00000000E-02 5.60074768E+01
  1 284 5.70052872E+01 1.00000000E-02 5.60052872E+01
  1 285 5.70052872E+01 1.00000000E-02 5.60052872E+01
  1 286 5.70074768E+01 1.00000000E-02 5.60074768E+01
  1 292 5.70052872E+01 1.00000000E-02 5.60052872E+01
  1 293 5.70074768E+01 1.00000000E-02 5.60074768E+01
  1 294 5.70052872E+01 1.00000000E-02 5.60052872E+01
  1 295 5.70074768E+01 1.00000000E-02 5.60074768E+01
  1 297 5.70074768E+01 1.00000000E-02 5.60074768E+01
  1 298 5.70052872E+01 1.00000000E-02 5.60052872E+01
  1 299 5.70052872E+01 1.00000000E-02 5.60052872E+01
  1 300 5.90000000E+01 1.00000000E-02 5.80000000E+01
  1 301 5.70074768E+01 1.00000000E-02 5.60074768E+01
  1 302 5.90000000E+01 1.00000000E-02 5.80000000E+01
  1 303 5.70074768E+01 1.00000000E-02 5.60074768E+01
  1 305 5.70105743E+01 1.00000000E-02 5.60105743E+01
  1 306 5.70127640E+01 1.00000000E-02 5.60127640E+01
  1 307 5.90000000E+01 1.00000000E-02 5.80000000E+01
  1 308 5.70127640E+01 1.00000000E-02 5.60127640E+01
  1 309 5.70149536E+01 1.00000000E-02 5.60149536E+01
  1 312 5.90000000E+01 1.00000000E-02 5.80000000E+01
  1 315 5.70127640E+01 1.00000000E-02 5.60127640E+01
  1 316 5.70105743E+01 1.00000000E-02 5.60105743E+01
  1 317 5.70149536E+01 1.00000000E-02 5.60149536E+01
  1 318 5.70105743E+01 1.00000000E-02 5.60105743E+01
  1 319 5.70127640E+01 1.00000000E-02 5.60127640E+01
  1 320 5.70149536E+01 1.00000000E-02 5.60149536E+01
  1 321 5.70127640E+01 1.00000000E-02 5.60127640E+01
  1 322 5.70149536E+01 1.00000000E-02 5.60149536E+01
  1 328 5.70149536E+01 1.00000000E-02 5.60149536E+01
  1 329 5.70127640E+01 1.00000000E-02 5.60127640E+01
  1 331 5.70127640E+01 1.00000000E-02 5.60127640E+01
  1 333 5.70127640E+01 1.00000000E-02 5.60127640E+01
  1 334 5.70149536E+01 1.00000000E-02 5.60149536E+01
  1 335 5.70149536E+01 1.00000000E-02 5.60149536E+01
  1 337 5.70127640E+01 1.00000000E-02 5.60127640E+01
  1 343 5.80000000E+01 1.00000000E-02 5.70000000E+01
  1 344 5.70149536E+01 1.00000000E-02 5.60149536E+01
  1 349 5.70127640E+01 1.00000000E-02 5.60127640E+01
  1 353 5.70149536E+01 1.00000000E-02 5.60149536E+01
  1 355 5.70149536E+01 1.00000000E-02 5.60149536E+01
  1 361 5.70180511E+01 1.00000000E-02 5.60180511E+01
  1 362 5.70180511E+01 1.00000000E-02 5.60180511E+01
  1 364 5.80000000E+01 1.00000000E-02 5.70000000E+01
  1 371 5.90000000E+01 1.00000000E-02 5.80000000E+01
  1 372 5.90000000E+01 1.00000000E-02 5.80000000E+01
  1 373 5.80000000E+01 1.00000000E-02 5.70000000E+01
  1 375 5.80000000E+01 1.00000000E-02 5.70000000E+01
  1 377 5.70180511E+01 1.00000000E-02 5.60180511E+01
  1 378 5.80000000E+01 1.00000000E-02 5.70000000E+01
  1 380 5.70180511E+01 1.00000000E-02 5.60180511E+01
  1 381 5.80000000E+01 1.00000000E-02 5.70000000E+01
  1 384 5.70180511E+01 1.00000000E-02 5.60180511E+01
  1 386 5.70180511E+01 1.00000000E-02 5.60180511E+01
  1 387 5.90000000E+01 1.00000000E-02 5.80000000E+01
  1 388 5.80000000E+01 1.00000000E-02 5.70000000E+01
  1 389 5.80000000E+01 1.00000000E-02 5.70000000E+01
  1 392 5.80000000E+01 1.00000000E-02 5.70000000E+01
  1 395 6.00000000E+01 1.00000000E-02 5.90000000E+01
  1 396 6.00000000E+01 1.00000000E-02 5.90000000E+01
  1 400 6.00000000E+01 1.00000000E-02 5.90000000E+01
  1 401 6.00000000E+01 1.00000000E-02 5.90000000E+01
  1 403 6.00000000E+01 1.00000000E-02 5.90000000E+01
  1 406 6.00000000E+01 1.00000000E-02 5.90000000E+01
  1 407 6.00000000E+01 1.00000000E-02 5.90000000E+01
  1 408 6.00000000E+01 1.00000000E-02 5.90000000E+01
  1 409 6.00000000E+01 1.00000000E-02 5.90000000E+01
  1 410 6.00000000E+01 1.00000000E-02 5.90000000E+01
  1 411 6.00000000E+01 1.00000000E-02 5.90000000E+01
  1 412 6.00000000E+01 1.00000000E-02 5.90000000E+01
  1 413 6.00000000E+01 1.00000000E-02 5.90000000E+01
  1 415 6.00000000E+01 1.00000000E-02 5.90000000E+01
  1 416 6.00000000E+01 1.00000000E-02 5.90000000E+01
  1 417 6.00000000E+01 1.00000000E-02 5.90000000E+01
  1 421 6.00000000E+01 1.00000000E-02 5.90000000E+01
  1 422 6.00000000E+01 1.00000000E-02 5.90000000E+01
  1 423 6.00052872E+01 1.00000000E-02 5.90052872E+01
  1 424 6.00000000E+01 1.00000000E-02 5.90000000E+01
  1 426 6.00052872E+01 1.00000000E-02 5.90052872E+01
  1 429 6.00000000E+01 1.00000000E-02 5.90000000E+01
  1 433 6.00000000E+01 1.00000000E-02 5.90000000E+01
  1 434 6.00052872E+01 1.00000000E-02 5.90052872E+01
  1 435 6.00000000E+01 1.00000000E-02 5.90000000E+01
  1 436 6.00000000E+01 1.00000000E-02 5.90000000E+01
  1 437 6.00052872E+01 1.00000000E-02 5.90052872E+01
  1 438 6.00052872E+01 1.00000000E-02 5.90052872E+01
  1 444 6.00052872E+01 1.00000000E-02 5.90052872E+01
  1 446 6.00052872E+01 1.00000000E-02 5.90052872E+01
  1 451 6.00000000E+01 1.00000000E-02 5.90000000E+01
  1 453 6.00000000E+01 1.00000000E-02 5.90000000E+01
  1 460 5.90286255E+01 1.00000000E-02 5.80286255E+01
  1 465 6.00052872E+01 1.00000000E-02 5.90052872E+01
  1 467 6.00052872E+01 1.00000000E-02 5.90052872E+01
  1 469 6.00000000E+01 1.00000000E-02 5.90000000E+01
  1 470 6.00000000E+01 1.00000000E-02 5.90000000E+01
  1 473 6.00000000E+01 1.00000000E-02 5.90000000E+01
  1 475 6.00000000E+01 1.00000000E-02 5.90000000E+01
  1 476 6.00000000E+01 1.00000000E-02 5.90000000E+01
  1 477 6.00000000E+01 1.00000000E-02 5.90000000E+01
  1 479 6.00000000E+01 1.00000000E-02 5.90000000E+01
  1 480 6.00000000E+01 1.00000000E-02 5.90000000E+01
  1 481 6.00000000E+01 1.00000000E-02 5.90000000E+01
  1 486 6.00000000E+01 1.00000000E-02 5.90000000E+01
  1 487 6.00000000E+01 1.00000000E-02 5.90000000E+01
  1 488 6.00000000E+01 1.00000000E-02 5.90000000E+01
  1 489 6.00000000E+01 1.00000000E-02 5.90000000E+01
  1 490 6.00000000E+01 1.00000000E-02 5.90000000E+01
  1 495 6.00000000E+01 1.00000000E-02 5.90000000E+01
  1 496 6.00000000E+01 1.00000000E-02 5.90000000E+01
  1 497 6.00000000E+01 1.00000000E-02 5.90000000E+01
  1 498 6.00000000E+01 1.00000000E-02 5.90000000E+01
  1 501 6.10000000E+01 1.00000000E-02 6.00000000E+01
  1 502 6.00000000E+01 1.00000000E-02 5.90000000E+01
  1 503 6.00000000E+01 1.00000000E-02 5.90000000E+01
  1 505 6.00000000E+01 1.00000000E-02 5.90000000E+01
  1 506 5.90317230E+01 1.00000000E-02 5.80317230E+01
  1 508 6.00000000E+01 1.00000000E-02 5.90000000E+01
  1 509 5.90317230E+01 1.00000000E-02 5.80317230E+01
  1 510 5.90317230E+01 1.00000000E-02 5.80317230E+01
  1 514 6.00000000E+01 1.00000000E-02 5.90000000E+01
  1 515 5.90264359E+01 1.00000000E-02 5.80264359E+01
  1 516 5.90317230E+01 1.00000000E-02 5.80317230E+01
  1 519 5.90317230E+01 1.00000000E-02 5.80317230E+01
  1 520 5.90264359E+01 1.00000000E-02 5.80264359E+01
  1 524 5.90317230E+01 1.00000000E-02 5.80317230E+01
  1 525 6.00000000E+01 1.00000000E-02 5.90000000E+01
  1 526 5.90264359E+01 1.00000000E-02 5.80264359E+01
  1 527 5.90317230E+01 1.00000000E-02 5.80317230E+01
  1 528 5.90317230E+01 1.00000000E-02 5.80317230E+01
  1 529 5.90264359E+01 1.00000000E-02 5.80264359E+01
  1 530 5.90317230E+01 1.00000000E-02 5.80317230E+01
  1 533 6.00000000E+01 1.00000000E-02 5.90000000E+01
  1 534 5.90264359E+01 1.00000000E-02 5.80264359E+01
  1 538 5.90339127E+01 1.00000000E-02 5.80339127E+01
  1 539 6.00000000E+01 1.00000000E-02 5.90000000E+01
  1 540 5.90339127E+01 1.00000000E-02 5.80339127E+01
  1 541 5.90264359E+01 1.00000000E-02 5.80264359E+01
  1 544 6.00000000E+01 1.00000000E-02 5.90000000E+01
  1 545 6.00000000E+01 1.00000000E-02 5.90000000E+01
  1 547 6.00000000E+01 1.00000000E-02 5.90000000E+01
  1 554 5.90317230E+01 1.00000000E-02 5.80317230E+01
  1 557 5.90339127E+01 1.00000000E-02 5.80339127E+01
  1 563 6.00000000E+01 1.00000000E-02 5.90000000E+01
  1 566 5.90339127E+01 1.00000000E-02 5.80339127E+01
  1 567 5.90339127E+01 1.00000000E-02 5.80339127E+01
  1 570 5.90286255E+01 1.00000000E-02 5.80286255E+01
  1 572 6.00000000E+01 1.00000000E-02 5.90000000E+01
  1 573 5.90339127E+01 1.00000000E-02 5.80339127E+01
  1 574 5.90339127E+01 1.00000000E-02 5.80339127E+01
  1 575 5.90308151E+01 1.00000000E-02 5.80308151E+01
  1 578 5.90339127E+01 1.00000000E-02 5.80339127E+01
  1 580 5.90339127E+01 1.00000000E-02 5.80339127E+01
  1 582 6.00000000E+01 1.00000000E-02 5.90000000E+01
  1 583 5.90286255E+01 1.00000000E-02 5.80286255E+01
  1 584 6.00000000E+01 1.00000000E-02 5.90000000E+01
  1 585 6.00000000E+01 1.00000000E-02 5.90000000E+01
  1 586 5.90339127E+01 1.00000000E-02 5.80339127E+01
  1 589 6.00000000E+01 1.00000000E-02 5.90000000E+01
  1 591 6.00000000E+01 1.00000000E-02 5.90000000E+01
  1 593 6.00000000E+01 1.00000000E-02 5.90000000E+01
  1 594 6.00000000E+01 1.00000000E-02 5.90000000E+01
  1 598 6.00000000E+01 1.00000000E-02 5.90000000E+01
  1 600 6.00000000E+01 1.00000000E-02 5.90000000E+01
  1 601 6.00000000E+01 1.00000000E-02 5.90000000E+01
  1 602 6.00000000E+01 1.00000000E-02 5.90000000E+01
  1 604 5.90308151E+01 1.00000000E-02 5.80308151E+01
  1 606 6.00000000E+01 1.00000000E-02 5.90000000E+01
  1 608 6.00000000E+01 1.00000000E-02 5.90000000E+01
  1 611 6.00000000E+01 1.00000000E-02 5.90000000E+01
  1 612 6.00000000E+01 1.00000000E-02 5.90000000E+01
  1 613 6.00000000E+01 1.00000000E-02 5.90000000E+01
  1 615 6.00000000E+01 1.00000000E-02 5.90000000E+01
  1 617 5.90308151E+01 1.00000000E-02 5.80308151E+01
  1 618 6.00000000E+01 1.00000000E-02 5.90000000E+01
  1 624 6.00000000E+01 1.00000000E-02 5.90000000E+01
  1 625 6.00000000E+01 1.00000000E-02 5.90000000E+01
  1 626 6.00000000E+01 1.00000000E-02 5.90000000E+01
  1 627 5.90330048E+01 1.00000000E-02 5.80330048E+01
  1 628 6.00000000E+01 1.00000000E-02 5.90000000E+01
  1 632 6.00000000E+01 1.00000000E-02 5.90000000E+01
  1 633 5.90330048E+01 1.00000000E-02 5.80330048E+01
  1 634 6.00000000E+01 1.00000000E-02 5.90000000E+01
  1 635 6.00000000E+01 1.00000000E-02 5.90000000E+01
  1 636 6.00000000E+01 1.00000000E-02 5.90000000E+01
  1 638 6.00000000E+01 1.00000000E-02 5.90000000E+01
  1 644 6.00000000E+01 1.00000000E-02 5.90000000E+01
  1 651 5.90330048E+01 1.00000000E-02 5.80330048E+01
  1 653 6.00000000E+01 1.00000000E-02 5.90000000E+01
  1 655 6.00000000E+01 1.00000000E-02 5.90000000E+01
  1 657 6.10000000E+01 1.00000000E-02 6.00000000E+01
  1 658 6.20000000E+01 1.00000000E-02 6.10000000E+01
  1 661 6.00000000E+01 1.00000000E-02 5.90000000E+01
  1 662 6.00000000E+01 1.00000000E-02 5.90000000E+01
  1 666 5.90351944E+01 1.00000000E-02 5.80351944E+01
  1 667 6.00000000E+01 1.00000000E-02 5.90000000E+01
  1 671 6.00000000E+01 1.00000000E-02 5.90000000E+01
  1 672 6.00000000E+01 1.00000000E-02 5.90000000E+01
  1 673 5.90404816E+01 1.00000000E-02 5.80404816E+01
  1 674 5.90404816E+01 1.00000000E-02 5.80404816E+01
  1 679 5.90351944E+01 1.00000000E-02 5.80351944E+01
  1 680 5.90404816E+01 1.00000000E-02 5.80404816E+01
  1 681 5.90404816E+01 1.00000000E-02 5.80404816E+01
  1 682 6.00000000E+01 1.00000000E-02 5.90000000E+01
  1 684 5.90404816E+01 1.00000000E-02 5.80404816E+01
  1 685 5.90404816E+01 1.00000000E-02 5.80404816E+01
  1 692 6.00000000E+01 1.00000000E-02 5.90000000E+01
  1 693 5.90404816E+01 1.00000000E-02 5.80404816E+01
  1 694 6.00000000E+01 1.00000000E-02 5.90000000E+01
  1 696 5.90404816E+01 1.00000000E-02 5.80404816E+01
  1 697 6.00000000E+01 1.00000000E-02 5.90000000E+01
  1 700 5.90351944E+01 1.00000000E-02 5.80351944E+01
  1 701 6.00000000E+01 1.00000000E-02 5.90000000E+01
  1 704 6.00000000E+01 1.00000000E-02 5.90000000E+01
  1 705 6.00000000E+01 1.00000000E-02 5.90000000E+01
  1 706 6.00000000E+01 1.00000000E-02 5.90000000E+01
  1 707 5.90404816E+01 1.00000000E-02 5.80404816E+01
  1 708 6.00000000E+01 1.00000000E-02 5.90000000E+01
  1 710 6.00000000E+01 1.00000000E-02 5.90000000E+01
  1 711 6.00000000E+01 1.00000000E-02 5.90000000E+01
  1 713 6.00000000E+01 1.00000000E-02 5.90000000E+01
  1 714 6.00000000E+01 1.00000000E-02 5.90000000E+01
  1 715 6.00000000E+01 1.00000000E-02 5.90000000E+01
  1 716 6.00000000E+01 1.00000000E-02 5.90000000E+01
  1 717 6.00000000E+01 1.00000000E-02 5.90000000E+01
  1 722 6.00000000E+01 1.00000000E-02 5.90000000E+01
  1 723 6.00000000E+01 1.00000000E-02 5.90000000E+01
  1 724 6.00000000E+01 1.00000000E-02 5.90000000E+01
  1 725 6.00000000E+01 1.00000000E-02 5.90000000E+01
  1 727 6.00000000E+01 1.00000000E-02 5.90000000E+01
  1 731 6.00052872E+01 1.00000000E-02 5.90052872E+01
  1 732 6.10000000E+01 1.00000000E-02 6.00000000E+01
  1 733 6.00000000E+01 1.00000000E-02 5.90000000E+01
  1 734 6.10000000E+01 1.00000000E-02 6.00000000E+01
  1 735 6.10000000E+01 1.00000000E-02 6.00000000E+01
  1 736 6.20000000E+01 1.00000000E-02 6.10000000E+01
  1 742 6.00052872E+01 1.00000000E-02 5.90052872E+01
  1 751 6.20000000E+01 1.00000000E-02 6.10000000E+01
  1 762 6.20000000E+01 1.00000000E-02 6.10000000E+01
  1 763 6.40000000E+01 1.00000000E-02 6.30000000E+01
  1 764 6.10000000E+01 1.00000000E-02 6.00000000E+01
  1 765 6.10000000E+01 1.00000000E-02 6.00000000E+01
  1 769 6.20000000E+01 1.00000000E-02 6.10000000E+01
  1 772 6.20000000E+01 1.00000000E-02 6.10000000E+01
  1 774 6.10000000E+01 1.00000000E-02 6.00000000E+01
  1 775 6.10000000E+01 1.00000000E-02 6.00000000E+01
  1 776 6.10000000E+01 1.00000000E-02 6.00000000E+01
  1 777 6.20000000E+01 1.00000000E-02 6.10000000E+01
  1 778 6.20000000E+01 1.00000000E-02 6.10000000E+01
  1 779 6.10000000E+01 1.00000000E-02 6.00000000E+01
  1 781 6.10000000E+01 1.00000000E-02 6.00000000E+01
  1 782 6.20000000E+01 1.00000000E-02 6.10000000E+01
  1 783 6.20000000E+01 1.00000000E-02 6.10000000E+01
  1 785 6.10000000E+01 1.00000000E-02 6.00000000E+01
  1 786 6.10000000E+01 1.00000000E-02 6.00000000E+01
  1 787 6.20000000E+01 1.00000000E-02 6.10000000E+01
  1 791 6.10000000E+01 1.00000000E-02 6.00000000E+01
  1 795 6.10000000E+01 1.00000000E-02 6.00000000E+01
  1 797 6.10000000E+01 1.00000000E-02 6.00000000E+01
  1 800 6.40000000E+01 1.00000000E-02 6.30000000E+01
  1 801 6.20000000E+01 1.00000000E-02 6.10000000E+01
  1 802 6.40000000E+01 1.00000000E-02 6.30000000E+01
  1 803 6.20000000E+01 1.00000000E-02 6.10000000E+01
  1 806 6.20000000E+01 1.00000000E-02 6.10000000E+01
  1 807 6.40000000E+01 1.00000000E-02 6.30000000E+01
  1 809 6.10000000E+01 1.00000000E-02 6.00000000E+01
  1 810 6.10000000E+01 1.00000000E-02 6.00000000E+01
  1 811 6.40000000E+01 1.00000000E-02 6.30000000E+01
  1 812 6.20000000E+01 1.00000000E-02 6.10000000E+01
  1 813 6.10000000E+01 1.00000000E-02 6.00000000E+01
  1 816 6.20000000E+01 1.00000000E-02 6.10000000E+01
  1 817 6.20000000E+01 1.00000000E-02 6.10000000E+01
  1 819 6.10000000E+01 1.00000000E-02 6.00000000E+01
  1 820 6.40000000E+01 1.00000000E-02 6.30000000E+01
  1 821 6.20000000E+01 1.00000000E-02 6.10000000E+01
  1 822 6.40000000E+01 1.00000000E-02 6.30000000E+01
  1 823 6.20000000E+01 1.00000000E-02 6.10000000E+01
  1 824 6.60000000E+01 1.00000000E-02 6.50000000E+01
  1 825 6.40000000E+01 1.00000000E-02 6.30000000E+01
  1 827 6.40000000E+01 1.00000000E-02 6.30000000E+01
  1 829 6.40000000E+01 1.00000000E-02 6.30000000E+01
  1 833 6.20000000E+01 1.00000000E-02 6.10000000E+01
  1 834 6.20000000E+01 1.00000000E-02 6.10000000E+01
  1 835 6.20000000E+01 1.00000000E-02 6.10000000E+01
  1 836 6.20000000E+01 1.00000000E-02 6.10000000E+01
  1 837 6.40000000E+01 1.00000000E-02 6.30000000E+01
  1 838 6.40000000E+01 1.00000000E-02 6.30000000E+01
  1 839 6.40000000E+01 1.00000000E-02 6.30000000E+01
  1 840 6.20000000E+01 1.00000000E-02 6.10000000E+01
  1 847 6.60000000E+01 1.00000000E-02 6.50000000E+01
  1 848 6.40000000E+01 1.00000000E-02 6.30000000E+01
  1 849 6.20000000E+01 1.00000000E-02 6.10000000E+01
  1 850 6.20000000E+01 1.00000000E-02 6.10000000E+01
  1 851 6.40000000E+01 1.00000000E-02 6.30000000E+01
  1 852 6.40000000E+01 1.00000000E-02 6.30000000E+01
  1 855 6.60000000E+01 1.00000000E-02 6.50000000E+01
  1 866 6.20000000E+01 1.00000000E-02 6.10000000E+01
  1 869 6.40000000E+01 1.00000000E-02 6.30000000E+01
  1 870 6.60000000E+01 1.00000000E-02 6.50000000E+01
  1 872 6.60000000E+01 1.00000000E-02 6.50000000E+01
  1 880 6.40000000E+01 1.00000000E-02 6.30000000E+01
  1 881 6.60000000E+01 1.00000000E-02 6.50000000E+01
  1 882 6.40000000E+01 1.00000000E-02 6.30000000E+01
  1 883 6.60000000E+01 1.00000000E-02 6.50000000E+01
  1 884 6.60000000E+01 1.00000000E-02 6.50000000E+01
  1 885 6.40000000E+01 1.00000000E-02 6.30000000E+01
  1 886 6.40000000E+01 1.00000000E-02 6.30000000E+01
  1 888 6.40000000E+01 1.00000000E-02 6.30000000E+01
  1 890 6.60000000E+01 1.00000000E-02 6.50000000E+01
  1 891 6.60000000E+01 1.00000000E-02 6.50000000E+01
  1 892 6.60000000E+01 1.00000000E-02 6.50000000E+01
  1 893 6.60000000E+01 1.00000000E-02 6.50000000E+01
  1 894 6.40000000E+01 1.00000000E-02 6.30000000E+01
  1 899 6.40000000E+01 1.00000000E-02 6.30000000E+01
  1 900 6.40000000E+01 1.00000000E-02 6.30000000E+01
  1 901 6.40000000E+01 1.00000000E-02 6.30000000E+01
  1 902 6.60000000E+01 1.00000000E-02 6.50000000E+01
  1 903 6.60000000E+01 1.00000000E-02 6.50000000E+01
  1 906 6.60000000E+01 1.00000000E-02 6.50000000E+01
  1 912 6.60000000E+01 1.00000000E-02 6.50000000E+01
  1 914 6.30000000E+01 1.00000000E-02 6.20000000E+01
  1 915 6.30000000E+01 1.00000000E-02 6.20000000E+01
  1 916 6.60000000E+01 1.00000000E-02 6.50000000E+01
  1 917 6.80000000E+01 1.00000000E-02 6.70000000E+01
  1 920 6.60000000E+01 1.00000000E-02 6.50000000E+01
  1 923 6.60000000E+01 1.00000000E-02 6.50000000E+01
  1 925 6.60000000E+01 1.00000000E-02 6.50000000E+01
  1 926 6.30000000E+01 1.00000000E-02 6.20000000E+01
  1 927 6.60000000E+01 1.00000000E-02 6.50000000E+01
  1 930 6.80000000E+01 1.00000000E-02 6.70000000E+01
  1 934 6.30000000E+01 1.00000000E-02 6.20000000E+01
  1 936 6.60000000E+01 1.00000000E-02 6.50000000E+01
  1 937 6.80000000E+01 1.00000000E-02 6.70000000E+01
  1 938 6.80000000E+01 1.00000000E-02 6.70000000E+01
  1 939 6.60000000E+01 1.00000000E-02 6.50000000E+01
  1 940 6.60000000E+01 1.00000000E-02 6.50000000E+01
  1 941 6.30000000E+01 1.00000000E-02 6.20000000E+01
  1 943 6.20000000E+01 1.00000000E-02 6.10000000E+01
  1 947 6.20000000E+01 1.00000000E-02 6.10000000E+01
  1 948 6.60000000E+01 1.00000000E-02 6.50000000E+01
  1 949 6.50000000E+01 1.00000000E-02 6.40000000E+01
  1 950 6.50000000E+01 1.00000000E-02 6.40000000E+01
  1 951 6.80000000E+01 1.00000000E-02 6.70000000E+01
  1 952 6.60000000E+01 1.00000000E-02 6.50000000E+01
  1 954 6.20000000E+01 1.00000000E-02 6.10000000E+01
  1 956 6.50000000E+01 1.00000000E-02 6.40000000E+01
  1 957 6.20000000E+01 1.00000000E-02 6.10000000E+01
  1 958 6.50000000E+01 1.00000000E-02 6.40000000E+01
  1 959 6.60000000E+01 1.00000000E-02 6.50000000E+01
  1 960 6.20000000E+01 1.00000000E-02 6.10000000E+01
  1 971 6.50000000E+01 1.00000000E-02 6.40000000E+01
  1 977 6.50000000E+01 1.00000000E-02 6.40000000E+01
  1 980 6.50000000E+01 1.00000000E-02 6.40000000E+01
  1 982 6.50000000E+01 1.00000000E-02 6.40000000E+01
  1 983 6.60000000E+01 1.00000000E-02 6.50000000E+01
  1 984 6.50000000E+01 1.00000000E-02 6.40000000E+01
  1 986 6.60000000E+01 1.00000000E-02 6.50000000E+01
  1 987 6.50000000E+01 1.00000000E-02 6.40000000E+01
  1 988 6.20000000E+01 1.00000000E-02 6.10000000E+01
  1 993 6.30000000E+01 1.00000000E-02 6.20000000E+01
  1 994 6.50000000E+01 1.00000000E-02 6.40000000E+01
  1 996 6.30000000E+01 1.00000000E-02 6.20000000E+01
  1 997 6.50000000E+01 1.00000000E-02 6.40000000E+01
  1 998 6.50000000E+01 1.00000000E-02 6.40000000E+01
  1 999 6.30000000E+01 1.00000000E-02 6.20000000E+01
  1 1006 6.50000000E+01 1.00000000E-02 6.40000000E+01
  1 1007 6.30000000E+01 1.00000000E-02 6.20000000E+01
  1 1009 6.50000000E+01 1.00000000E-02 6.40000000E+01
  1 1010 6.50000000E+01 1.00000000E-02 6.40000000E+01
  1 1012 6.30000000E+01 1.00000000E-02 6.20000000E+01
  1 1014 6.30000000E+01 1.00000000E-02 6.20000000E+01
  1 1019 6.50000000E+01 1.00000000E-02 6.40000000E+01
  1 1020 6.30000000E+01 1.00000000E-02 6.20000000E+01
  1 1021 6.30000000E+01 1.00000000E-02 6.20000000E+01
  1 1022 6.50000000E+01 1.00000000E-02 6.40000000E+01
  1 1023 6.30000000E+01 1.00000000E-02 6.20000000E+01
  1 1024 6.50000000E+01 1.00000000E-02 6.40000000E+01
  1 1026 6.50000000E+01 1.00000000E-02 6.40000000E+01
  1 1027 6.50000000E+01 1.00000000E-02 6.40000000E+01
  1 1028 6.30000000E+01 1.00000000E-02 6.20000000E+01
  1 1029 6.20000000E+01 1.00000000E-02 6.10000000E+01
  1 1031 6.40000000E+01 1.00000000E-02 6.30000000E+01
  1 1032 6.40000000E+01 1.00000000E-02 6.30000000E+01
  1 1033 6.40000000E+01 1.00000000E-02 6.30000000E+01
  1 1034 6.60000000E+01 1.00000000E-02 6.50000000E+01
  1 1035 6.60000000E+01 1.00000000E-02 6.50000000E+01
  1 1040 6.40000000E+01 1.00000000E-02 6.30000000E+01
  1 1043 6.40000000E+01 1.00000000E-02 6.30000000E+01
  1 1044 6.40000000E+01 1.00000000E-02 6.30000000E+01
  1 1045 6.40000000E+01 1.00000000E-02 6.30000000E+01
  1 1046 6.40000000E+01 1.00000000E-02 6.30000000E+01
  1 1047 6.60000000E+01 1.00000000E-02 6.50000000E+01
  1 1048 6.60000000E+01 1.00000000E-02 6.50000000E+01
  1 1049 6.60000000E+01 1.00000000E-02 6.50000000E+01
  1 1051 6.40000000E+01 1.00000000E-02 6.30000000E+01
  1 1052 6.40000000E+01 1.00000000E-02 6.30000000E+01
  1 1053 6.40000000E+01 1.00000000E-02 6.30000000E+01
  1 1059 6.40000000E+01 1.00000000E-02 6.30000000E+01
  1 1060 6.40000000E+01 1.00000000E-02 6.30000000E+01
  1 1061 6.40000000E+01 1.00000000E-02 6.30000000E+01
  1 1062 6.40000000E+01 1.00000000E-02 6.30000000E+01
  1 1063 6.40000000E+01 1.00000000E-02 6.30000000E+01
  1 1064 6.60000000E+01 1.00000000E-02 6.50000000E+01
  1 1065 6.60000000E+01 1.00000000E-02 6.50000000E+01
  1 1066 6.50000000E+01 1.00000000E-02 6.40000000E+01
  1 1070 6.40000000E+01 1.00000000E-02 6.30000000E+01
  1 1075 6.70000000E+01 1.00000000E-02 6.60000000E+01
  1 1076 6.40000000E+01 1.00000000E-02 6.30000000E+01
  1 1077 6.70000000E+01 1.00000000E-02 6.60000000E+01
  1 1078 6.70000000E+01 1.00000000E-02 6.60000000E+01
  1 1079 6.40000000E+01 1.00000000E-02 6.30000000E+01
  1 1080 6.40000000E+01 1.00000000E-02 6.30000000E+01
  1 1085 6.70000000E+01 1.00000000E-02 6.60000000E+01
  1 1087 6.50000000E+01 1.00000000E-02 6.40000000E+01
  1 1089 6.70000000E+01 1.00000000E-02 6.60000000E+01
  1 1091 6.70000000E+01 1.00000000E-02 6.60000000E+01
  1 1099 6.70000000E+01 1.00000000E-02 6.60000000E+01
  1 1100 6.70000000E+01 1.00000000E-02 6.60000000E+01
  1 1102 6.70000000E+01 1.00000000E-02 6.60000000E+01
  1 1103 6.50000000E+01 1.00000000E-02 6.40000000E+01
  1 1104 6.50000000E+01 1.00000000E-02 6.40000000E+01
  1 1110 6.70000000E+01 1.00000000E-02 6.60000000E+01
  1 1111 6.70000000E+01 1.00000000E-02 6.60000000E+01
  1 1113 6.70000000E+01 1.00000000E-02 6.60000000E+01
  1 1114 6.70000000E+01 1.00000000E-02 6.60000000E+01
  1 1118 6.70000000E+01 1.00000000E-02 6.60000000E+01
  1 1119 6.70000000E+01 1.00000000E-02 6.60000000E+01
  1 1120 6.70000000E+01 1.00000000E-02 6.60000000E+01
  1 1122 6.80000000E+01 1.00000000E-02 6.70000000E+01
  1 1125 6.60074768E+01 1.00000000E-02 6.50074768E+01
  1 1126 6.60074768E+01 1.00000000E-02 6.50074768E+01
  1 1127 6.80000000E+01 1.00000000E-02 6.70000000E+01
  1 1128 6.80000000E+01 1.00000000E-02 6.70000000E+01
  1 1129 6.80000000E+01 1.00000000E-02 6.70000000E+01
  1 1131 6.60074768E+01 1.00000000E-02 6.50074768E+01
  1 1134 6.60074768E+01 1.00000000E-02 6.50074768E+01
  1 1136 6.60074768E+01 1.00000000E-02 6.50074768E+01
  1 1138 6.60074768E+01 1.00000000E-02 6.50074768E+01
  1 1139 6.80000000E+01 1.00000000E-02 6.70000000E+01