# File generated by Flopy version 3.8.2 on 11/05/2024 at 17:39:17.
BEGIN options
END options

BEGIN dimensions
  MAXBOUND  3
END dimensions

BEGIN period  2
  2 1430 -1.50000000E-01
  2 1752 -1.50000000E-01
  2 2211 -1.50000000E-01
END period  2

