# File generated by Flopy version 3.8.2 on 11/05/2024 at 17:39:17.
BEGIN options
END options

BEGIN griddata
  strt  LAYERED
    INTERNAL  FACTOR  1.0
          57.00000000      56.00747681      56.00528717      81.00000000      56.00747681      58.00000000      56.00747681      59.00000000      57.00000000      56.00747681      56.00747681      56.00747681      56.00747681      82.00000000      88.00000000      56.01057434      56.01276398      78.00000000      56.00747681      76.00000000
          56.01057434      71.00000000      56.01805115      69.00000000      56.00747681      63.00000000      61.00000000      64.00000000      57.00000000      57.00000000      56.04138947      57.00000000      58.00000000      56.04048157      57.01805115      57.00000000      58.00000000      57.00747681      56.01495361      56.00000000
          56.01495361      58.00000000      60.00000000      56.02771759      57.00000000      60.00000000      56.01276398      56.01276398      56.00747681      56.01276398      56.01495361      57.00000000      56.01276398      56.01495361      56.01495361      56.01495361      56.01586151      57.00000000      56.01495361      56.01495361
          56.01805115      56.01495361      56.01495361      56.02024078      56.02771759      56.01495361      56.02243042      56.01495361      63.00000000      56.01495361      56.01276398      56.01276398      56.01495361      56.01495361      56.01495361      56.01495361      56.01495361      56.01495361      64.00000000      56.02024078
          56.01276398      56.02024078      56.02024078      56.02024078      73.00000000      56.02024078      56.02024078      56.02024078      56.02024078      56.01805115      56.02024078      56.02024078      56.02024078      56.02024078      56.01805115      75.00000000      56.01805115      56.02024078      80.00000000      75.00000000
          56.01805115      56.02024078      56.02024078      57.00000000      56.02024078      56.01805115      56.02024078      60.00000000      57.00000000      56.01805115      56.02552795      56.02552795      56.02552795      56.02333832      58.00000000      56.02771759      59.00000000      56.02552795      56.02771759      56.02552795
          56.02552795      56.02771759      56.02552795      56.02333832      67.00000000      56.02333832      56.02771759      78.00000000      56.02552795      56.02333832      56.02643585      60.00000000      56.02771759      59.00000000      56.02990723      56.02771759      58.00000000      56.03519440      56.01276398      58.00000000
          58.00528717      56.03519440      56.03519440      65.00000000      57.00000000      57.00000000      65.00000000      56.02552795      56.02552795      56.02552795      56.02771759      56.02771759      56.02862549      59.00000000      58.00000000      56.02771759      56.02862549      56.03300476      56.02771759      57.00000000
          57.00000000      56.02552795      56.03300476      56.02862549      56.02862549      60.00000000      57.00000000      56.03300476      56.03300476      61.00000000      57.00000000      56.03300476      57.00000000      56.03300476      57.00000000      64.00000000      56.03519440      56.04048157      68.01495361      57.00000000
          58.00000000      57.00000000      56.04048157      59.00000000      56.03300476      56.03829193      56.03300476      68.03081512      58.00000000      60.00000000      56.03300476      56.03519440      57.00000000      60.00000000      60.00000000      56.03829193      59.00000000      56.04048157      60.00000000      56.03829193
          71.00000000      60.00000000      60.00000000      56.03829193      56.03829193      61.00000000      59.00000000      74.00000000      56.03829193      63.00000000      60.00000000      60.00000000      60.00000000      56.03829193      59.00000000      60.00000000      56.04048157      59.00000000      56.03829193      59.00000000
          60.00000000      61.00000000      60.00000000      56.03829193      59.00000000      56.03829193      57.00000000      56.04048157      57.00000000      59.00000000      79.00000000      59.00000000      68.00000000      58.00528717      59.00000000      59.00000000      62.00000000      57.00000000      57.00000000      61.00000000
          59.00000000      57.00000000      68.00000000      60.00000000      59.00000000      63.00000000      57.00000000      57.00747681      57.00000000      57.00000000      60.00000000      57.00000000      57.00000000      57.00000000      59.00000000      60.00000000      57.00000000      59.00000000      59.00000000      58.00747681
          57.00000000      57.00000000      57.00000000      59.00000000      59.00000000      57.00000000      58.00000000      57.00000000      57.00528717      57.01057434      57.00528717      59.00000000      57.00000000      57.00528717      61.00000000      57.00747681      63.00000000      57.00747681      58.00000000      57.00747681
          57.00528717      58.00000000      57.00747681      57.00528717      57.00528717      57.00747681      63.00000000      59.00000000      59.00000000      57.00747681      57.00528717      57.00528717      57.00747681      57.00528717      57.00747681      59.00000000      57.00747681      57.00528717      57.00528717      59.00000000
          57.00747681      59.00000000      57.00747681      66.00000000      57.01057434      57.01276398      59.00000000      57.01276398      57.01495361      58.01057434      61.00000000      59.00000000      74.00000000      69.00000000      57.01276398      57.01057434      57.01495361      57.01057434      57.01276398      57.01495361
          57.01276398      57.01495361      75.00000000      75.00000000      58.00000000      62.00747681      57.01057434      57.01495361      57.01276398      57.01057434      57.01276398      57.01057434      57.01276398      57.01495361      57.01495361      58.00000000      57.01276398      66.00000000      83.00000000      58.00747681
          58.02243042      70.00000000      58.00000000      57.01495361      57.01057434      57.01805115      58.00000000      58.01805115      57.01276398      62.00000000      65.00000000      58.00000000      57.01495361      65.00000000      57.01495361      64.00000000      62.02771759      59.02024078      59.02114868      62.02243042
          57.01805115      57.01805115      60.00000000      58.00000000      59.00000000      59.00000000      58.00000000      60.00000000      58.00747681      62.00000000      59.00000000      59.00000000      58.00000000      61.00000000      58.00000000      67.00000000      57.01805115      58.00000000      61.00000000      57.01805115
          58.00000000      57.01805115      60.00000000      57.01805115      59.00000000      57.01805115      59.00000000      58.00000000      58.00000000      58.01495361      57.01805115      58.00000000      72.00000000      71.00000000      60.00000000      60.00000000      61.00000000      60.00000000      60.00000000      60.00000000
          60.00000000      60.00000000      60.00000000      60.00000000      75.00000000      60.00000000      60.00000000      60.00000000      60.00000000      60.00000000      60.00000000      60.00000000      60.00000000      60.00000000      60.00000000      60.00000000      60.00000000      60.00000000      61.00000000      60.00000000
          60.00000000      60.00000000      60.00528717      60.00000000      58.02643585      60.00528717      60.00000000      60.00000000      60.00000000      63.00000000      61.00000000      81.00000000      60.00000000      60.00528717      60.00000000      60.00000000      60.00528717      60.00528717      73.00000000      67.00000000
          64.01276398      59.02552795      80.00000000      60.00528717      61.00000000      60.00528717      61.00000000      61.00000000      58.01276398      61.00000000      60.00000000      64.02024078      60.00000000      68.00000000      67.00000000      59.02333832      59.02024078      62.04357910      59.02862549      59.02862549
          63.00000000      61.00000000      60.00000000      59.02333832      60.00528717      59.02552795      60.00528717      60.00000000      60.00000000      60.00000000      59.02552795      61.00000000      60.00000000      63.00000000      60.00000000      60.00000000      60.00000000      59.01586151      60.00000000      60.00000000
          60.00000000      61.00000000      59.00528717      59.02643585      70.00747681      60.00000000      60.00000000      60.00000000      60.00000000      60.00000000      60.00000000      70.02552795      60.00000000      61.00000000      60.00000000      60.00000000      60.00000000      60.00000000      61.00000000      71.00528717
          61.00000000      60.00000000      60.00000000      59.00000000      60.00000000      59.03172302      77.00000000      60.00000000      59.03172302      59.03172302      60.00747681      60.00000000      60.00000000      60.00000000      59.02643585      59.03172302      60.00000000      60.00000000      59.03172302      59.02643585
          60.00000000      59.02643585      59.02114868      59.03172302      60.00000000      59.02643585      59.03172302      59.03172302      59.02643585      59.03172302      64.01057434      79.00000000      60.00000000      59.02643585      59.01805115      64.02333832      59.02643585      59.03391266      60.00000000      59.03391266
          59.02643585      59.02862549      77.00000000      60.00000000      60.00000000      60.00000000      60.00000000      70.00000000      60.00747681      60.00747681      60.00000000      59.02862549      65.00000000      59.03172302      66.00000000      64.00000000      59.03391266      62.05415344      59.03300476      59.03300476
          63.00000000      60.00000000      60.00000000      61.00000000      59.02333832      59.03391266      59.03391266      61.00000000      59.02024078      59.02862549      59.02862549      60.00000000      59.03391266      59.03391266      59.03081512      59.03081512      59.02862549      59.03391266      59.02552795      59.03391266
          67.00000000      60.00000000      59.02862549      60.00000000      60.00000000      59.03391266      70.00747681      60.00000000      60.00000000      73.00000000      60.00000000      62.00000000      60.00000000      60.00000000      72.00000000      75.00747681      60.00000000      60.00000000      60.00747681      60.00000000
          60.00000000      60.00000000      59.03081512      59.03081512      65.00000000      60.00000000      60.00000000      60.00000000      60.00528717      76.00000000      60.00000000      60.00000000      60.00000000      66.00000000      60.00000000      59.02771759      59.03081512      60.00000000      66.00000000      59.03081512
          60.00000000      60.00000000      60.00528717      60.00000000      60.00000000      60.00000000      59.03300476      60.00000000      59.02243042      65.00528717      59.03300476      60.00000000      59.03300476      60.00000000      60.00000000      60.00000000      59.03300476      60.00000000      77.00000000      61.00000000
          60.01057434      69.00000000      60.00000000      60.00000000      62.00000000      62.00000000      60.00528717      60.00000000      59.02990723      67.00000000      59.03300476      65.00747681      60.00000000      67.00000000      60.00000000      68.00000000      61.00000000      62.00000000      69.00000000      59.02990723
          60.00000000      60.00000000      59.03519440      60.00528717      60.00747681      59.03519440      60.00000000      62.01276398      60.00528717      60.00000000      60.00000000      60.00000000      59.04048157      59.04048157      60.00000000      60.00000000      59.02771759      59.03519440      59.03519440      59.04048157
          59.04048157      60.00000000      60.00000000      59.04048157      59.04048157      62.00000000      60.00000000      60.00000000      73.00000000      64.00000000      60.00000000      60.00000000      59.04048157      60.00000000      59.03519440      59.04048157      60.00000000      59.03519440      62.00000000      59.03519440
          60.00000000      74.00000000      77.00000000      60.00000000      60.00000000      60.00000000      59.04048157      60.00000000      78.00000000      60.00000000      60.00000000      60.00000000      60.00000000      60.00000000      60.00000000      60.00000000      60.00000000      73.00000000      60.00000000      61.00000000
          64.00000000      60.00000000      60.00000000      60.00000000      60.00000000      64.01495361      60.00000000      60.00528717      64.03081512      62.00000000      60.00528717      61.00000000      60.00000000      61.00000000      61.00000000      62.00000000      70.00000000      81.00000000      60.00528717      72.00000000
          60.01057434      60.00528717      60.00528717      61.00000000      62.00000000      62.00000000      60.00528717      63.00000000      69.00000000      62.00000000      62.00000000      66.00000000      69.00000000      64.00747681      66.00000000      70.00000000      68.00000000      69.00000000      70.00747681      65.00000000
          62.00000000      62.00000000      64.00000000      61.00000000      61.00000000      62.00000000      65.00000000      64.00000000      62.00000000      60.01057434      60.01057434      62.00000000      62.00000000      61.00000000      61.00000000      61.00000000      62.00000000      62.00000000      61.00000000      60.01057434
          61.00000000      62.00000000      62.00000000      62.00000000      61.00000000      61.00000000      62.00000000      64.00000000      68.00000000      66.00000000      61.00000000      61.00000000      61.00000000      60.01586151      61.00000000      66.00000000      61.00000000      64.00000000      64.00000000      64.00000000
          62.00000000      64.00000000      62.00000000      63.00000000      64.00000000      62.00000000      64.00000000      73.00000000      61.00000000      61.00000000      64.00000000      62.00000000      61.00000000      76.00000000      76.00000000      62.00000000      62.00000000      77.00000000      61.00000000      64.00000000
          62.00000000      64.00000000      62.00000000      66.00000000      64.00000000      64.01057434      64.00000000      64.01495361      64.00000000      61.00000000      80.00000000      64.03081512      62.00000000      62.00000000      62.00000000      62.00000000      64.00000000      64.00000000      64.00000000      62.00000000
          67.00000000      61.00000000      60.01586151      66.00000000      66.00000000      61.00000000      66.00000000      64.00000000      62.00000000      62.00000000      64.00000000      64.00000000      66.00000000      66.00000000      66.00000000      64.00000000      62.00000000      84.00000000      61.00000000      62.00000000
          62.00000000      73.00000000      62.00000000      62.00000000      62.00000000      62.00000000      68.00000000      66.00000000      64.00000000      66.00000000      68.00000000      66.00000000      68.00000000      69.00000000      69.00000000      70.00000000      66.00000000      66.00000000      71.00000000      64.00000000
          66.00000000      64.00000000      66.00000000      66.00000000      64.00000000      64.00000000      60.02862549      64.00000000      69.00000000      66.00000000      66.00000000      66.00000000      66.00000000      64.00000000      66.02771759      78.00000000      77.01805115      64.02333832      64.00000000      64.00000000
          64.00000000      66.00000000      66.00000000      64.00000000      64.02333832      66.00000000      61.00000000      62.00000000      61.00000000      63.00000000      67.00000000      66.00000000      64.02643585      63.00000000      63.00000000      66.00000000      68.00000000      68.00000000      68.00000000      66.00000000
          63.00000000      62.00000000      66.00000000      78.00000000      66.00000000      63.00000000      66.00000000      68.00000000      65.00000000      68.00000000      63.00000000      75.02552795      68.00000000      63.00000000      61.00000000      66.00000000      68.00000000      68.00000000      66.00000000      66.00000000
          63.00000000      62.00000000      62.00000000      68.00000000      66.00000000      66.00000000      62.00000000      66.00000000      65.00000000      65.00000000      68.00000000      66.00000000      64.03081512      62.00000000      80.00000000      65.00000000      62.00000000      65.00000000      66.00000000      62.00000000
          85.00528717      66.00000000      65.00000000      78.00000000      64.00000000      62.00000000      69.00000000      63.00000000      62.00000000      68.00000000      65.00000000      69.00000000      70.00000000      64.03391266      66.00000000      71.00000000      65.00000000      65.00000000      70.03300476      65.00000000
          66.00747681      65.00000000      66.00000000      65.00000000      66.00000000      66.00000000      65.00000000      62.00000000      63.00000000      64.00000000      62.00000000      66.00000000      63.00000000      65.00000000      66.00000000      63.00000000      65.00000000      65.00000000      63.00000000      68.00000000
          62.00000000      64.03919983      66.00000000      63.00000000      72.00000000      65.00000000      63.00000000      65.00000000      65.00000000      65.00000000      62.00000000      63.00000000      64.00000000      63.00000000      67.00000000      66.00000000      65.01805115      66.00000000      65.00000000      63.00000000
          63.00000000      65.00000000      63.00000000      65.00000000      74.00000000      65.00000000      65.00000000      63.00000000      62.00000000      65.00000000      64.00000000      64.00000000      64.00000000      66.00000000      66.00000000      67.00000000      75.04138947      77.00000000      86.00000000      64.00000000
          67.00528717      66.00000000      64.00000000      64.00000000      64.00000000      64.00000000      66.00000000      66.00000000      66.00000000      65.00000000      64.00000000      64.00000000      64.00000000      65.00000000      67.00000000      65.00000000      66.00000000      66.00000000      64.00000000      64.00000000
          64.00000000      64.00000000      64.00000000      66.00000000      66.00000000      65.00000000      66.00000000      68.00000000      67.00000000      64.00000000      67.00000000      66.00000000      67.00000000      77.00000000      67.00000000      64.00000000      67.00000000      67.00000000      64.00000000      64.00000000
          85.00000000      69.00000000      67.00000000      71.00000000      67.00000000      68.00000000      65.00000000      68.01805115      67.00000000      72.00000000      67.00000000      71.00000000      67.00000000      67.00000000      71.00000000      65.00000000      67.00000000      67.00000000      67.00000000      67.00000000
          66.00000000      67.00000000      65.00000000      65.00000000      66.00000000      66.00000000      71.00000000      67.00000000      67.00000000      67.00000000      67.00000000      68.00000000      67.00000000      67.00000000      68.00000000      66.00528717      65.00000000      67.00000000      67.00000000      67.00000000
          66.00747681      68.00000000      72.00000000      71.01057434      66.00747681      66.00747681      68.00000000      68.00000000      68.00000000      66.00000000      66.00747681      66.00528717      66.00747681      66.00747681      65.00000000      66.00747681      67.00000000      66.00747681      68.00000000      68.00000000
          68.00000000      67.00000000      66.00000000      68.00000000      77.00000000      76.00000000      68.00000000      66.00747681      66.00747681      66.00747681      68.00000000      66.00000000      67.00000000      66.00000000      67.00000000      67.00000000      70.00000000      67.00000000      68.00000000      68.00000000
          66.00528717      67.00000000      68.00000000      86.00000000      67.00000000      67.00000000      67.00000000      68.00000000      68.00000000      68.00000000      66.00528717      67.00000000      67.00000000      68.00000000      66.00528717      69.00000000      73.00000000      67.00000000      67.00000000      68.00000000
          67.00000000      68.00000000      68.00000000      66.00528717      66.00528717      83.00000000      72.00000000      68.00000000      72.00000000      67.00747681      67.00747681      71.00000000      67.00747681      68.00000000      70.00000000      69.00000000      73.00000000      66.00528717      72.01495361      67.00000000
          68.00000000      73.00000000      71.00000000      71.00000000      70.06381989      67.00747681      66.00528717      68.00000000      67.00747681      68.00000000      67.00747681      68.00000000      68.00000000      68.00000000      69.00000000      67.00000000      67.00000000      67.00747681      70.00000000      73.00000000
          68.00000000      68.00000000      68.00000000      68.00000000      68.00000000      68.00000000      68.00000000      68.00000000      68.00000000      68.00000000      68.00000000      68.00000000      68.00000000      68.00000000      66.00000000      68.00000000      68.00000000      68.00000000      68.00000000      68.00000000
          68.00000000      67.00747681      68.00000000      68.00000000      68.00000000      68.00000000      68.00000000      68.00000000      70.00000000      70.00000000      69.00000000      69.00000000      68.00000000      70.02552795      72.00000000      69.00000000      68.00000000      69.00000000      69.00000000      68.00000000
          70.00000000      70.00000000      70.00000000      71.00000000      70.00000000      74.00000000      69.00000000      78.00000000      70.00000000      70.00000000      70.00000000      70.00000000      69.00000000      68.00000000      68.00000000      68.00000000      69.00000000      71.00000000      71.00000000      69.00000000
          71.00000000      78.02024078      69.00000000      69.00000000      71.00000000      71.00000000      69.01586151      71.00000000      69.00000000      71.00000000      71.00000000      71.00000000      71.00000000      72.00000000      80.00000000      68.01276398      72.00000000      71.00000000      71.00000000      69.00000000
          69.00000000      69.02024078      71.00000000      73.00000000      71.00000000      72.01276398      68.00000000      71.00000000      73.00000000      67.00000000      69.00000000      70.07968140      71.00000000      68.00000000      71.00000000      71.00000000      71.00000000      68.02024078      66.00747681      68.02771759
          66.01805115      72.00000000      72.00000000      66.01805115      66.01805115      71.00000000      71.00000000      72.00000000      75.00000000      71.00000000      69.00747681      71.00000000      69.00747681      71.00000000      71.00000000      69.00747681      74.00000000      69.00747681      72.00000000      71.00000000
          72.00000000      71.00000000      72.00000000      67.00000000      71.00000000      72.00000000      72.00000000      71.00000000      69.00000000      72.00000000      76.00000000      71.00000000      71.00000000      72.00000000      70.00000000      72.00000000      70.00000000      67.00000000      70.00000000      72.00000000
          72.00000000      67.00000000      67.00000000      78.01805115      68.02333832      79.00000000      67.00000000      70.00000000      70.00000000      71.00000000      72.00000000      70.00000000      72.00000000      70.00000000      70.00000000      72.00000000      74.00000000      72.00000000      70.00000000      72.00000000
          72.00000000      68.02552795      68.02333832      72.00000000      70.00000000      67.00000000      72.00000000      71.00000000      70.00000000      69.02243042      70.00747681      71.00000000      70.00528717      71.00000000      71.00000000      70.00000000      71.00000000      70.00000000      71.00000000      71.00000000
          72.00000000      71.00000000      73.00000000      90.00000000      68.02862549      68.02862549      71.00000000      72.00000000      68.04048157      71.00000000      68.03300476      69.03081512      69.00000000      69.00000000      71.00000000      74.00000000      74.00000000      69.00000000      73.00000000      70.00000000
          71.00000000      73.00000000      69.00000000      71.00000000      71.00000000      71.00000000      71.00000000      71.00000000      68.03829193      71.00000000      71.00000000      71.00000000      69.00000000      71.00000000      70.01057434      68.03610229      71.00000000      71.00000000      71.00000000      71.00000000
          71.00000000      69.00000000      68.03391266      69.00000000      71.00000000      71.00000000      71.00000000      69.00000000      70.01057434      71.00000000      68.02862549      75.00000000      71.00000000      78.00000000      69.00000000      70.00528717      70.00528717      70.00000000      69.00000000      70.00000000
          71.00000000      70.00000000      77.00000000      70.00000000      72.00000000      70.00528717      70.00000000      70.00000000      69.02243042      71.00000000      70.00528717      72.00000000      70.00528717      70.00528717      70.01276398      70.00747681      70.00528717      78.00000000      71.00000000      71.00000000
          70.00000000      80.00000000      71.00000000      70.00000000      71.00000000      71.00000000      71.00000000      72.00000000      69.00000000      71.00000000      71.00000000      70.00747681      71.00000000      70.00000000      71.00000000      70.00528717      71.00000000      70.00528717      68.03919983      71.00000000
          71.00000000      70.00528717      70.00528717      70.01276398      71.00000000      71.00000000      70.00747681      70.00528717      71.00000000      70.00528717      71.00000000      71.00000000      71.00000000      69.03829193      70.00528717      71.00000000      70.01276398      70.00528717      70.00528717      71.00000000
          70.00000000      71.00000000      77.00000000      72.00528717      69.04267120      71.00000000      94.00000000      70.00528717      70.01057434      70.02024078      70.01057434      71.00000000      70.01057434      70.01495361      71.00000000      70.00528717      71.00000000      71.00000000      71.00000000      75.00000000
          73.02333832      73.01276398      71.00000000      70.02114868      73.00000000      71.00000000      70.01805115      71.00000000      70.01276398      70.01805115      70.01276398      70.01276398      70.01276398      74.00000000      80.00000000      81.00000000      70.01805115      70.01805115      77.01586151      70.01586151
          70.01805115      71.00000000      71.00000000      71.00000000      71.00000000      71.00000000      70.01805115      70.01057434      71.00000000      71.00000000      70.01805115      71.00000000      70.01057434      70.02552795      70.01057434      75.00000000      70.01805115      71.00000000      71.00000000      70.01805115
          71.00000000      70.01805115      70.01805115      70.01805115      71.00000000      70.01276398      70.01805115      70.01805115      71.00000000      71.00000000      70.01805115      70.02024078      70.01805115      70.01805115      70.01276398      70.01805115      70.02024078      71.00000000      70.02024078      71.00000000
          71.00000000      70.02024078      70.02024078      70.02114868      71.00000000      70.02024078      70.02024078      70.01805115      70.02024078      70.02024078      71.00000000      70.00000000      70.02114868      70.02114868      77.02024078      70.01586151      70.00000000      70.01805115      69.04267120      80.00000000
          70.01805115      70.02552795      70.02552795      70.01805115      70.01805115      70.02333832      70.02333832      70.02552795      70.02333832      70.02552795      70.02552795      70.02333832      70.02333832      72.00000000      70.02333832      71.00000000      90.00000000      70.02552795      70.02552795      84.00000000
          70.02862549      70.02862549      70.02643585      85.00000000      70.02552795      71.00000000      70.02333832      70.03391266      70.02552795      70.02114868      76.00000000      70.00747681      76.00000000      70.00000000      77.00000000      75.00000000      75.00000000      79.00000000      70.02114868      70.02114868
          70.02333832      70.02333832      70.02333832      70.02552795      70.02552795      70.02333832      70.02862549      70.03081512      70.03610229      70.03081512      70.02862549      70.02333832      75.00000000      70.02862549      70.02862549      70.02862549      70.03081512      75.00000000      75.00000000      70.02862549
          70.02333832      70.02862549      72.01586151      70.03081512      70.03081512      70.02862549      70.02862549      70.01805115      77.00000000      70.03081512      70.00528717      70.02862549      70.03391266      72.00000000      70.01276398      83.00000000      70.03081512      70.02862549      70.03081512      70.02862549
          70.02862549      72.00000000      70.01057434      84.00000000      70.02862549      70.03391266      70.03391266      78.00000000      70.02862549      70.03081512      70.03610229      70.03610229      70.02862549      72.00000000      70.03610229      70.03610229      70.03610229      72.00000000      72.00000000      75.00000000