# File generated by Flopy version 3.8.2 on 11/05/2024 at 17:39:17.
BEGIN options
  TIME_UNITS  seconds
END options

BEGIN dimensions
  NPER  11
END dimensions

BEGIN perioddata
       1.00000000  1       1.00000000
  1.72800000E+07  4       1.00000000
  1.72800000E+07  4       1.00000000
  1.72800000E+07  4       1.00000000
  1.72800000E+07  4       1.00000000
  1.72800000E+07  4       1.00000000
  1.72800000E+07  4       1.00000000
  1.72800000E+07  4       1.00000000
  1.72800000E+07  4       1.00000000
  1.72800000E+07  4       1.00000000
  1.72800000E+07  4       1.00000000
END perioddata

