# File generated by Flopy version 3.8.2 on 11/05/2024 at 17:39:17.
BEGIN options
  SAVE_FLOWS
  NEWTON  UNDER_RELAXATION
END options

BEGIN packages
  DISV6  geo_model.disv  disv
  IC6  geo_model.ic  ic
  NPF6  geo_model.npf  npf
  STO6  geo_model.sto  sto
  EVT6  geo_model.evta  evta_0
  RCH6  geo_model.rch  rch_0
  WEL6  geo_model.wel  wel_0
  RIV6  geo_model.riv  riv_0
  GHB6  geo_model.ghb  ghb_0
  OC6  geo_model.oc  oc
END packages

