# File generated by Flopy version 3.8.2 on 11/05/2024 at 17:39:17.
BEGIN options
END options

BEGIN dimensions
  MAXBOUND  34
END dimensions

BEGIN period  1
  1 4 55 1.00000000E-02
  1 4 55 1.00000000E-02
  1 4 55 1.00000000E-02
  1 4 55 1.00000000E-02
  1 4 55 1.00000000E-02
  1 4 55 1.00000000E-02
  1 4 55 1.00000000E-02
  1 4 55 1.00000000E-02
  1 4 55 1.00000000E-02
  1 4 55 1.00000000E-02
  1 4 55 1.00000000E-02
  1 4 55 1.00000000E-02
  1 4 55 1.00000000E-02
  1 4 55 1.00000000E-02
  1 4 55 1.00000000E-02
  1 4 55 1.00000000E-02
  1 4 55 1.00000000E-02
  1 4 90 1.00000000E-02
  1 4 90 1.00000000E-02
  1 4 90 1.00000000E-02
  1 4 90 1.00000000E-02
  1 4 90 1.00000000E-02
  1 4 90 1.00000000E-02
  1 4 90 1.00000000E-02
  1 4 90 1.00000000E-02
  1 4 90 1.00000000E-02
  1 4 90 1.00000000E-02
  1 4 90 1.00000000E-02
  1 4 90 1.00000000E-02
  1 4 90 1.00000000E-02
  1 4 90 1.00000000E-02
  1 4 90 1.00000000E-02
  1 4 90 1.00000000E-02
  1 4 90 1.00000000E-02
END period  1

