# File generated by Flopy version 3.8.2 on 11/05/2024 at 17:39:17.
BEGIN options
END options

BEGIN dimensions
  MAXBOUND  1142
END dimensions

BEGIN period  1
  1 4 6.34195840E-09
  1 6 6.34195840E-09
  1 8 6.34195840E-09
  1 14 6.34195840E-09
  1 15 6.34195840E-09
  1 18 6.34195840E-09
  1 20 6.34195840E-09
  1 22 6.34195840E-09
  1 23 6.34195840E-09
  1 24 6.34195840E-09
  1 26 6.34195840E-09
  1 27 6.34195840E-09
  1 28 6.34195840E-09
  1 30 6.34195840E-09
  1 31 6.34195840E-09
  1 32 6.34195840E-09
  1 33 6.34195840E-09
  1 34 6.34195840E-09
  1 35 6.34195840E-09
  1 36 6.34195840E-09
  1 37 6.34195840E-09
  1 38 6.34195840E-09
  1 40 6.34195840E-09
  1 42 6.34195840E-09
  1 43 6.34195840E-09
  1 45 6.34195840E-09
  1 46 6.34195840E-09
  1 52 6.34195840E-09
  1 58 6.34195840E-09
  1 67 6.34195840E-09
  1 69 6.34195840E-09
  1 79 6.34195840E-09
  1 85 6.34195840E-09
  1 96 6.34195840E-09
  1 99 6.34195840E-09
  1 100 6.34195840E-09
  1 104 6.34195840E-09
  1 108 6.34195840E-09
  1 115 6.34195840E-09
  1 117 6.34195840E-09
  1 125 6.34195840E-09
  1 128 6.34195840E-09
  1 132 6.34195840E-09
  1 134 6.34195840E-09
  1 135 6.34195840E-09
  1 137 6.34195840E-09
  1 138 6.34195840E-09
  1 139 6.34195840E-09
  1 140 6.34195840E-09
  1 141 6.34195840E-09
  1 144 6.34195840E-09
  1 147 6.34195840E-09
  1 155 6.34195840E-09
  1 170 6.34195840E-09
  1 176 6.34195840E-09
  1 179 6.34195840E-09
  1 184 6.34195840E-09
  1 188 6.34195840E-09
  1 189 6.34195840E-09
  1 197 6.34195840E-09
  1 201 6.34195840E-09
  1 206 6.34195840E-09
  1 208 6.34195840E-09
  1 210 6.34195840E-09
  1 221 6.34195840E-09
  1 222 6.34195840E-09
  1 223 6.34195840E-09
  1 231 6.34195840E-09
  1 233 6.34195840E-09
  1 234 6.34195840E-09
  1 237 6.34195840E-09
  1 239 6.34195840E-09
  1 240 6.34195840E-09
  1 241 6.34195840E-09
  1 243 6.34195840E-09
  1 244 6.34195840E-09
  1 245 6.34195840E-09
  1 246 6.34195840E-09
  1 251 6.34195840E-09
  1 260 6.34195840E-09
  1 264 6.34195840E-09
  1 265 6.34195840E-09
  1 275 6.34195840E-09
  1 277 6.34195840E-09
  1 282 6.34195840E-09
  1 287 6.34195840E-09
  1 304 6.34195840E-09
  1 310 6.34195840E-09
  1 311 6.34195840E-09
  1 313 6.34195840E-09
  1 314 6.34195840E-09
  1 323 6.34195840E-09
  1 324 6.34195840E-09
  1 326 6.34195840E-09
  1 336 6.34195840E-09
  1 338 6.34195840E-09
  1 339 6.34195840E-09
  1 340 6.34195840E-09
  1 341 6.34195840E-09
  1 342 6.34195840E-09
  1 348 6.34195840E-09
  1 350 6.34195840E-09
  1 351 6.34195840E-09
  1 352 6.34195840E-09
  1 354 6.34195840E-09
  1 356 6.34195840E-09
  1 357 6.34195840E-09
  1 358 6.34195840E-09
  1 359 6.34195840E-09
  1 360 6.34195840E-09
  1 363 6.34195840E-09
  1 366 6.34195840E-09
  1 370 6.34195840E-09
  1 374 6.34195840E-09
  1 376 6.34195840E-09
  1 379 6.34195840E-09
  1 385 6.34195840E-09
  1 393 6.34195840E-09
  1 394 6.34195840E-09
  1 397 6.34195840E-09
  1 398 6.34195840E-09
  1 399 6.34195840E-09
  1 402 6.34195840E-09
  1 405 6.34195840E-09
  1 425 6.34195840E-09
  1 427 6.34195840E-09
  1 428 6.34195840E-09
  1 430 6.34195840E-09
  1 432 6.34195840E-09
  1 439 6.34195840E-09
  1 440 6.34195840E-09
  1 441 6.34195840E-09
  1 442 6.34195840E-09
  1 443 6.34195840E-09
  1 449 6.34195840E-09
  1 452 6.34195840E-09
  1 454 6.34195840E-09
  1 455 6.34195840E-09
  1 456 6.34195840E-09
  1 457 6.34195840E-09
  1 458 6.34195840E-09
  1 461 6.34195840E-09
  1 463 6.34195840E-09
  1 464 6.34195840E-09
  1 466 6.34195840E-09
  1 471 6.34195840E-09
  1 472 6.34195840E-09
  1 474 6.34195840E-09
  1 478 6.34195840E-09
  1 483 6.34195840E-09
  1 485 6.34195840E-09
  1 492 6.34195840E-09
  1 500 6.34195840E-09
  1 504 6.34195840E-09
  1 507 6.34195840E-09
  1 512 6.34195840E-09
  1 513 6.34195840E-09
  1 523 6.34195840E-09
  1 531 6.34195840E-09
  1 532 6.34195840E-09
  1 535 6.34195840E-09
  1 536 6.34195840E-09
  1 543 6.34195840E-09
  1 548 6.34195840E-09
  1 553 6.34195840E-09
  1 555 6.34195840E-09
  1 556 6.34195840E-09
  1 558 6.34195840E-09
  1 561 6.34195840E-09
  1 565 6.34195840E-09
  1 568 6.34195840E-09
  1 569 6.34195840E-09
  1 581 6.34195840E-09
  1 587 6.34195840E-09
  1 590 6.34195840E-09
  1 592 6.34195840E-09
  1 595 6.34195840E-09
  1 596 6.34195840E-09
  1 605 6.34195840E-09
  1 610 6.34195840E-09
  1 614 6.34195840E-09
  1 616 6.34195840E-09
  1 619 6.34195840E-09
  1 629 6.34195840E-09
  1 630 6.34195840E-09
  1 639 6.34195840E-09
  1 640 6.34195840E-09
  1 641 6.34195840E-09
  1 642 6.34195840E-09
  1 645 6.34195840E-09
  1 646 6.34195840E-09
  1 650 6.34195840E-09
  1 652 6.34195840E-09
  1 654 6.34195840E-09
  1 656 6.34195840E-09
  1 659 6.34195840E-09
  1 668 6.34195840E-09
  1 677 6.34195840E-09
  1 683 6.34195840E-09
  1 686 6.34195840E-09
  1 689 6.34195840E-09
  1 690 6.34195840E-09
  1 699 6.34195840E-09
  1 702 6.34195840E-09
  1 703 6.34195840E-09
  1 709 6.34195840E-09
  1 718 6.34195840E-09
  1 720 6.34195840E-09
  1 721 6.34195840E-09
  1 726 6.34195840E-09
  1 729 6.34195840E-09
  1 737 6.34195840E-09
  1 738 6.34195840E-09
  1 740 6.34195840E-09
  1 745 6.34195840E-09
  1 748 6.34195840E-09
  1 749 6.34195840E-09
  1 752 6.34195840E-09
  1 753 6.34195840E-09
  1 754 6.34195840E-09
  1 755 6.34195840E-09
  1 756 6.34195840E-09
  1 757 6.34195840E-09
  1 758 6.34195840E-09
  1 759 6.34195840E-09
  1 760 6.34195840E-09
  1 767 6.34195840E-09
  1 784 6.34195840E-09
  1 789 6.34195840E-09
  1 790 6.34195840E-09
  1 804 6.34195840E-09
  1 808 6.34195840E-09
  1 814 6.34195840E-09
  1 815 6.34195840E-09
  1 818 6.34195840E-09
  1 826 6.34195840E-09
  1 828 6.34195840E-09
  1 831 6.34195840E-09
  1 832 6.34195840E-09
  1 841 6.34195840E-09
  1 844 6.34195840E-09
  1 856 6.34195840E-09
  1 858 6.34195840E-09
  1 862 6.34195840E-09
  1 865 6.34195840E-09
  1 867 6.34195840E-09
  1 868 6.34195840E-09
  1 871 6.34195840E-09
  1 873 6.34195840E-09
  1 874 6.34195840E-09
  1 876 6.34195840E-09
  1 877 6.34195840E-09
  1 878 6.34195840E-09
  1 879 6.34195840E-09
  1 889 6.34195840E-09
  1 895 6.34195840E-09
  1 896 6.34195840E-09
  1 897 6.34195840E-09
  1 898 6.34195840E-09
  1 905 6.34195840E-09
  1 911 6.34195840E-09
  1 913 6.34195840E-09
  1 918 6.34195840E-09
  1 919 6.34195840E-09
  1 924 6.34195840E-09
  1 928 6.34195840E-09
  1 929 6.34195840E-09
  1 932 6.34195840E-09
  1 933 6.34195840E-09
  1 944 6.34195840E-09
  1 945 6.34195840E-09
  1 946 6.34195840E-09
  1 953 6.34195840E-09
  1 955 6.34195840E-09
  1 961 6.34195840E-09
  1 962 6.34195840E-09
  1 963 6.34195840E-09
  1 964 6.34195840E-09
  1 967 6.34195840E-09
  1 968 6.34195840E-09
  1 970 6.34195840E-09
  1 972 6.34195840E-09
  1 973 6.34195840E-09
  1 974 6.34195840E-09
  1 976 6.34195840E-09
  1 979 6.34195840E-09
  1 981 6.34195840E-09
  1 995 6.34195840E-09
  1 1000 6.34195840E-09
  1 1002 6.34195840E-09
  1 1003 6.34195840E-09
  1 1005 6.34195840E-09
  1 1008 6.34195840E-09
  1 1015 6.34195840E-09
  1 1017 6.34195840E-09
  1 1025 6.34195840E-09
  1 1037 6.34195840E-09
  1 1038 6.34195840E-09
  1 1039 6.34195840E-09
  1 1041 6.34195840E-09
  1 1068 6.34195840E-09
  1 1072 6.34195840E-09
  1 1074 6.34195840E-09
  1 1081 6.34195840E-09
  1 1082 6.34195840E-09
  1 1083 6.34195840E-09
  1 1084 6.34195840E-09
  1 1086 6.34195840E-09
  1 1088 6.34195840E-09
  1 1090 6.34195840E-09
  1 1092 6.34195840E-09
  1 1095 6.34195840E-09
  1 1101 6.34195840E-09
  1 1107 6.34195840E-09
  1 1112 6.34195840E-09
  1 1115 6.34195840E-09
  1 1116 6.34195840E-09
  1 1123 6.34195840E-09
  1 1124 6.34195840E-09
  1 1135 6.34195840E-09
  1 1141 6.34195840E-09
  1 1143 6.34195840E-09
  1 1145 6.34195840E-09
  1 1146 6.34195840E-09
  1 1153 6.34195840E-09
  1 1157 6.34195840E-09
  1 1164 6.34195840E-09
  1 1176 6.34195840E-09
  1 1177 6.34195840E-09
  1 1183 6.34195840E-09
  1 1186 6.34195840E-09
  1 1187 6.34195840E-09
  1 1188 6.34195840E-09
  1 1189 6.34195840E-09
  1 1192 6.34195840E-09
  1 1195 6.34195840E-09
  1 1196 6.34195840E-09
  1 1197 6.34195840E-09
  1 1199 6.34195840E-09
  1 1202 6.34195840E-09
  1 1205 6.34195840E-09
  1 1215 6.34195840E-09
  1 1219 6.34195840E-09
  1 1220 6.34195840E-09
  1 1224 6.34195840E-09
  1 1227 6.34195840E-09
  1 1235 6.34195840E-09
  1 1238 6.34195840E-09
  1 1239 6.34195840E-09
  1 1245 6.34195840E-09
  1 1246 6.34195840E-09
  1 1254 6.34195840E-09
  1 1255 6.34195840E-09
  1 1264 6.34195840E-09
  1 1265 6.34195840E-09
  1 1266 6.34195840E-09
  1 1268 6.34195840E-09
  1 1282 6.34195840E-09
  1 1284 6.34195840E-09
  1 1287 6.34195840E-09
  1 1294 6.34195840E-09
  1 1295 6.34195840E-09
  1 1296 6.34195840E-09
  1 1297 6.34195840E-09
  1 1302 6.34195840E-09
  1 1304 6.34195840E-09
  1 1306 6.34195840E-09
  1 1309 6.34195840E-09
  1 1312 6.34195840E-09
  1 1313 6.34195840E-09
  1 1314 6.34195840E-09
  1 1318 6.34195840E-09
  1 1319 6.34195840E-09
  1 1320 6.34195840E-09
  1 1327 6.34195840E-09
  1 1329 6.34195840E-09
  1 1332 6.34195840E-09
  1 1337 6.34195840E-09
  1 1344 6.34195840E-09
  1 1349 6.34195840E-09
  1 1351 6.34195840E-09
  1 1358 6.34195840E-09
  1 1359 6.34195840E-09
  1 1364 6.34195840E-09
  1 1365 6.34195840E-09
  1 1366 6.34195840E-09
  1 1370 6.34195840E-09
  1 1377 6.34195840E-09
  1 1378 6.34195840E-09
  1 1382 6.34195840E-09
  1 1383 6.34195840E-09
  1 1387 6.34195840E-09
  1 1388 6.34195840E-09
  1 1390 6.34195840E-09
  1 1391 6.34195840E-09
  1 1393 6.34195840E-09
  1 1400 6.34195840E-09
  1 1401 6.34195840E-09
  1 1402 6.34195840E-09
  1 1403 6.34195840E-09
  1 1404 6.34195840E-09
  1 1405 6.34195840E-09
  1 1406 6.34195840E-09
  1 1407 6.34195840E-09
  1 1408 6.34195840E-09
  1 1409 6.34195840E-09
  1 1411 6.34195840E-09
  1 1412 6.34195840E-09
  1 1416 6.34195840E-09
  1 1417 6.34195840E-09
  1 1419 6.34195840E-09
  1 1420 6.34195840E-09
  1 1422 6.34195840E-09
  1 1429 6.34195840E-09
  1 1430 6.34195840E-09
  1 1431 6.34195840E-09
  1 1432 6.34195840E-09
  1 1435 6.34195840E-09
  1 1436 6.34195840E-09
  1 1443 6.34195840E-09
  1 1445 6.34195840E-09
  1 1448 6.34195840E-09
  1 1451 6.34195840E-09
  1 1452 6.34195840E-09
  1 1453 6.34195840E-09
  1 1454 6.34195840E-09
  1 1455 6.34195840E-09
  1 1463 6.34195840E-09
  1 1465 6.34195840E-09
  1 1469 6.34195840E-09
  1 1472 6.34195840E-09
  1 1473 6.34195840E-09
  1 1475 6.34195840E-09
  1 1478 6.34195840E-09
  1 1482 6.34195840E-09
  1 1488 6.34195840E-09
  1 1489 6.34195840E-09
  1 1491 6.34195840E-09
  1 1499 6.34195840E-09
  1 1504 6.34195840E-09
  1 1514 6.34195840E-09
  1 1521 6.34195840E-09
  1 1523 6.34195840E-09
  1 1524 6.34195840E-09
  1 1525 6.34195840E-09
  1 1527 6.34195840E-09
  1 1530 6.34195840E-09
  1 1532 6.34195840E-09
  1 1534 6.34195840E-09
  1 1535 6.34195840E-09
  1 1540 6.34195840E-09
  1 1541 6.34195840E-09
  1 1542 6.34195840E-09
  1 1543 6.34195840E-09
  1 1544 6.34195840E-09
  1 1545 6.34195840E-09
  1 1549 6.34195840E-09
  1 1554 6.34195840E-09
  1 1555 6.34195840E-09
  1 1556 6.34195840E-09
  1 1559 6.34195840E-09
  1 1568 6.34195840E-09
  1 1572 6.34195840E-09
  1 1574 6.34195840E-09
  1 1576 6.34195840E-09
  1 1583 6.34195840E-09
  1 1612 6.34195840E-09
  1 1614 6.34195840E-09
  1 1615 6.34195840E-09
  1 1616 6.34195840E-09
  1 1617 6.34195840E-09
  1 1619 6.34195840E-09
  1 1620 6.34195840E-09
  1 1634 6.34195840E-09
  1 1637 6.34195840E-09
  1 1640 6.34195840E-09
  1 1644 6.34195840E-09
  1 1647 6.34195840E-09
  1 1651 6.34195840E-09
  1 1652 6.34195840E-09
  1 1653 6.34195840E-09
  1 1654 6.34195840E-09
  1 1655 6.34195840E-09
  1 1656 6.34195840E-09
  1 1657 6.34195840E-09
  1 1658 6.34195840E-09
  1 1669 6.34195840E-09
  1 1673 6.34195840E-09
  1 1678 6.34195840E-09
  1 1679 6.34195840E-09
  1 1681 6.34195840E-09
  1 1683 6.34195840E-09
  1 1687 6.34195840E-09
  1 1688 6.34195840E-09
  1 1689 6.34195840E-09
  1 1691 6.34195840E-09
  1 1694 6.34195840E-09
  1 1695 6.34195840E-09
  1 1696 6.34195840E-09
  1 1702 6.34195840E-09
  1 1703 6.34195840E-09
  1 1704 6.34195840E-09
  1 1708 6.34195840E-09
  1 1718 6.34195840E-09
  1 1719 6.34195840E-09
  1 1720 6.34195840E-09
  1 1722 6.34195840E-09
  1 1726 6.34195840E-09
  1 1727 6.34195840E-09
  1 1737 6.34195840E-09
  1 1738 6.34195840E-09
  1 1740 6.34195840E-09
  1 1742 6.34195840E-09
  1 1744 6.34195840E-09
  1 1745 6.34195840E-09
  1 1748 6.34195840E-09
  1 1750 6.34195840E-09
  1 1752 6.34195840E-09
  1 1753 6.34195840E-09
  1 1755 6.34195840E-09
  1 1756 6.34195840E-09
  1 1757 6.34195840E-09
  1 1759 6.34195840E-09
  1 1764 6.34195840E-09
  1 1765 6.34195840E-09
  1 1767 6.34195840E-09
  1 1768 6.34195840E-09
  1 1771 6.34195840E-09
  1 1772 6.34195840E-09
  1 1778 6.34195840E-09
  1 1781 6.34195840E-09
  1 1782 6.34195840E-09
  1 1784 6.34195840E-09
  1 1787 6.34195840E-09
  1 1791 6.34195840E-09
  1 1793 6.34195840E-09
  1 1796 6.34195840E-09
  1 1797 6.34195840E-09
  1 1799 6.34195840E-09
  1 1804 6.34195840E-09
  1 1805 6.34195840E-09
  1 1809 6.34195840E-09
  1 1818 6.34195840E-09
  1 1822 6.34195840E-09
  1 1823 6.34195840E-09
  1 1826 6.34195840E-09
  1 1835 6.34195840E-09
  1 1843 6.34195840E-09
  1 1845 6.34195840E-09
  1 1846 6.34195840E-09
  1 1847 6.34195840E-09
  1 1848 6.34195840E-09
  1 1855 6.34195840E-09
  1 1856 6.34195840E-09
  1 1862 6.34195840E-09
  1 1863 6.34195840E-09
  1 1866 6.34195840E-09
  1 1869 6.34195840E-09
  1 1870 6.34195840E-09
  1 1871 6.34195840E-09
  1 1872 6.34195840E-09
  1 1875 6.34195840E-09
  1 1876 6.34195840E-09
  1 1878 6.34195840E-09
  1 1881 6.34195840E-09
  1 1883 6.34195840E-09
  1 1885 6.34195840E-09
  1 1890 6.34195840E-09
  1 1898 6.34195840E-09
  1 1906 6.34195840E-09
  1 1911 6.34195840E-09
  1 1913 6.34195840E-09
  1 1914 6.34195840E-09
  1 1924 6.34195840E-09
  1 1925 6.34195840E-09
  1 1930 6.34195840E-09
  1 1940 6.34195840E-09
  1 1947 6.34195840E-09
  1 1949 6.34195840E-09
  1 1959 6.34195840E-09
  1 1967 6.34195840E-09
  1 1968 6.34195840E-09
  1 1972 6.34195840E-09
  1 1974 6.34195840E-09
  1 1975 6.34195840E-09
  1 1976 6.34195840E-09
  1 1977 6.34195840E-09
  1 1978 6.34195840E-09
  1 1981 6.34195840E-09
  1 1983 6.34195840E-09
  1 1985 6.34195840E-09
  1 1986 6.34195840E-09
  1 1987 6.34195840E-09
  1 1988 6.34195840E-09
  1 1994 6.34195840E-09
  1 1999 6.34195840E-09
  1 2007 6.34195840E-09
  1 2018 6.34195840E-09
  1 2026 6.34195840E-09
  1 2032 6.34195840E-09
  1 2037 6.34195840E-09
  1 2044 6.34195840E-09
  1 2045 6.34195840E-09
  1 2047 6.34195840E-09
  1 2049 6.34195840E-09
  1 2050 6.34195840E-09
  1 2053 6.34195840E-09
  1 2060 6.34195840E-09
  1 2061 6.34195840E-09
  1 2073 6.34195840E-09
  1 2074 6.34195840E-09
  1 2075 6.34195840E-09
  1 2076 6.34195840E-09
  1 2079 6.34195840E-09
  1 2081 6.34195840E-09
  1 2082 6.34195840E-09
  1 2085 6.34195840E-09
  1 2087 6.34195840E-09
  1 2089 6.34195840E-09
  1 2090 6.34195840E-09
  1 2091 6.34195840E-09
  1 2100 6.34195840E-09
  1 2103 6.34195840E-09
  1 2104 6.34195840E-09
  1 2109 6.34195840E-09
  1 2113 6.34195840E-09
  1 2116 6.34195840E-09
  1 2117 6.34195840E-09
  1 2118 6.34195840E-09
  1 2120 6.34195840E-09
  1 2121 6.34195840E-09
  1 2124 6.34195840E-09
  1 2139 6.34195840E-09
  1 2140 6.34195840E-09
  1 2141 6.34195840E-09
  1 2143 6.34195840E-09
  1 2146 6.34195840E-09
  1 2147 6.34195840E-09
  1 2173 6.34195840E-09
  1 2174 6.34195840E-09
  1 2175 6.34195840E-09
  1 2176 6.34195840E-09
  1 2180 6.34195840E-09
  1 2183 6.34195840E-09
  1 2190 6.34195840E-09
  1 2191 6.34195840E-09
  1 2194 6.34195840E-09
  1 2199 6.34195840E-09
  1 2205 6.34195840E-09
  1 2206 6.34195840E-09
  1 2208 6.34195840E-09
  1 2211 6.34195840E-09
  1 2213 6.34195840E-09
  1 2214 6.34195840E-09
  1 2215 6.34195840E-09
  1 2218 6.34195840E-09
  1 2225 6.34195840E-09
  1 2226 6.34195840E-09
  1 2227 6.34195840E-09
  1 2228 6.34195840E-09
  1 2229 6.34195840E-09
  1 2230 6.34195840E-09
  1 2231 6.34195840E-09
  1 2232 6.34195840E-09
  1 2233 6.34195840E-09
  1 2234 6.34195840E-09
  1 2235 6.34195840E-09
  1 2236 6.34195840E-09
  1 2238 6.34195840E-09
  1 2240 6.34195840E-09
  1 2241 6.34195840E-09
  1 2243 6.34195840E-09
  1 2248 6.34195840E-09
  1 2253 6.34195840E-09
  1 2254 6.34195840E-09
  1 2258 6.34195840E-09
  1 2260 6.34195840E-09
  1 2269 6.34195840E-09
  1 2272 6.34195840E-09
  1 2274 6.34195840E-09
  1 2275 6.34195840E-09
  1 2277 6.34195840E-09
  1 2279 6.34195840E-09
  1 2280 6.34195840E-09
  1 2283 6.34195840E-09
  1 2296 6.34195840E-09
  1 2299 6.34195840E-09
  1 2307 6.34195840E-09
  1 2308 6.34195840E-09
  1 2310 6.34195840E-09
  1 2312 6.34195840E-09
  1 2314 6.34195840E-09
  1 2318 6.34195840E-09
  1 2320 6.34195840E-09
  1 2329 6.34195840E-09
  1 2336 6.34195840E-09
  1 2337 6.34195840E-09
  1 2338 6.34195840E-09
  1 2345 6.34195840E-09
  1 2351 6.34195840E-09
  1 2354 6.34195840E-09
  1 2358 6.34195840E-09
  1 2361 6.34195840E-09
  1 2362 6.34195840E-09
  1 2368 6.34195840E-09
  1 2371 6.34195840E-09
  1 2375 6.34195840E-09
  1 2376 6.34195840E-09
  1 2377 6.34195840E-09
  1 2383 6.34195840E-09
  1 2386 6.34195840E-09
  1 2389 6.34195840E-09
  1 2392 6.34195840E-09
  1 2400 6.34195840E-09
  1 2403 6.34195840E-09
  1 2412 6.34195840E-09
  1 2416 6.34195840E-09
  1 2420 6.34195840E-09
  1 2421 6.34195840E-09
  1 2428 6.34195840E-09
  1 2434 6.34195840E-09
  1 2436 6.34195840E-09
  1 2437 6.34195840E-09
  1 2438 6.34195840E-09
  1 2443 6.34195840E-09
  1 2450 6.34195840E-09
  1 2452 6.34195840E-09
  1 2454 6.34195840E-09
  1 2455 6.34195840E-09
  1 2458 6.34195840E-09
  1 2463 6.34195840E-09
  1 2470 6.34195840E-09
  1 2472 6.34195840E-09
  1 2479 6.34195840E-09
  1 2485 6.34195840E-09
  1 2493 6.34195840E-09
  1 2494 6.34195840E-09
  1 2495 6.34195840E-09
  1 2496 6.34195840E-09
  1 2506 6.34195840E-09
  1 2507 6.34195840E-09
  1 2516 6.34195840E-09
  1 2519 6.34195840E-09
  1 2522 6.34195840E-09
  1 2524 6.34195840E-09
  1 2531 6.34195840E-09
  1 2532 6.34195840E-09
  1 2535 6.34195840E-09
  1 2540 6.34195840E-09
  1 2550 6.34195840E-09
  1 2552 6.34195840E-09
  1 2554 6.34195840E-09
  1 2555 6.34195840E-09
  1 2557 6.34195840E-09
  1 2559 6.34195840E-09
  1 2560 6.34195840E-09
  1 2565 6.34195840E-09
  1 2567 6.34195840E-09
  1 2568 6.34195840E-09
  1 2569 6.34195840E-09
  1 2572 6.34195840E-09
  1 2573 6.34195840E-09
  1 2575 6.34195840E-09
  1 2577 6.34195840E-09
  1 2578 6.34195840E-09
  1 2589 6.34195840E-09
  1 2594 6.34195840E-09
  1 2599 6.34195840E-09
  1 2600 6.34195840E-09
  1 2610 6.34195840E-09
  1 2615 6.34195840E-09
  1 2616 6.34195840E-09
  1 2617 6.34195840E-09
  1 2618 6.34195840E-09
  1 2636 6.34195840E-09
  1 2637 6.34195840E-09
  1 2643 6.34195840E-09
  1 2648 6.34195840E-09
  1 2650 6.34195840E-09
  1 2651 6.34195840E-09
  1 2652 6.34195840E-09
  1 2653 6.34195840E-09
  1 2655 6.34195840E-09
  1 2656 6.34195840E-09
  1 2657 6.34195840E-09
  1 2660 6.34195840E-09
  1 2669 6.34195840E-09
  1 2674 6.34195840E-09
  1 2681 6.34195840E-09
  1 2695 6.34195840E-09
  1 2697 6.34195840E-09
  1 2699 6.34195840E-09
  1 2701 6.34195840E-09
  1 2709 6.34195840E-09
  1 2710 6.34195840E-09
  1 2712 6.34195840E-09
  1 2713 6.34195840E-09
  1 2722 6.34195840E-09
  1 2727 6.34195840E-09
  1 2729 6.34195840E-09
  1 2733 6.34195840E-09
  1 2734 6.34195840E-09
  1 2741 6.34195840E-09
  1 2742 6.34195840E-09
  1 2743 6.34195840E-09
  1 2745 6.34195840E-09
  1 2748 6.34195840E-09
  1 2749 6.34195840E-09
  1 2754 6.34195840E-09
  1 2755 6.34195840E-09
  1 2756 6.34195840E-09
  1 2758 6.34195840E-09
  1 2759 6.34195840E-09
  1 2761 6.34195840E-09
  1 2766 6.34195840E-09
  1 2768 6.34195840E-09
  1 2771 6.34195840E-09
  1 2780 6.34195840E-09
  1 2795 6.34195840E-09
  1 2804 6.34195840E-09
  1 2808 6.34195840E-09
  1 2817 6.34195840E-09
  1 2818 6.34195840E-09
  1 2824 6.34195840E-09
  1 2826 6.34195840E-09
  1 2828 6.34195840E-09
  1 2832 6.34195840E-09
  1 2833 6.34195840E-09
  1 2842 6.34195840E-09
  1 2844 6.34195840E-09
  1 2850 6.34195840E-09
  1 2851 6.34195840E-09
  1 2852 6.34195840E-09
  1 2853 6.34195840E-09
  1 2855 6.34195840E-09
  1 2857 6.34195840E-09
  1 2858 6.34195840E-09
  1 2859 6.34195840E-09
  1 2860 6.34195840E-09
  1 2873 6.34195840E-09
  1 2877 6.34195840E-09
  1 2878 6.34195840E-09
  1 2880 6.34195840E-09
  1 2883 6.34195840E-09
  1 2890 6.34195840E-09
  1 2901 6.34195840E-09
  1 2905 6.34195840E-09
  1 2912 6.34195840E-09
  1 2914 6.34195840E-09
  1 2917 6.34195840E-09
  1 2921 6.34195840E-09
  1 2923 6.34195840E-09
  1 2931 6.34195840E-09
  1 2935 6.34195840E-09
  1 2940 6.34195840E-09
  1 2941 6.34195840E-09
  1 2942 6.34195840E-09
  1 2945 6.34195840E-09
  1 2947 6.34195840E-09
  1 2950 6.34195840E-09
  1 2952 6.34195840E-09
  1 2955 6.34195840E-09
  1 2957 6.34195840E-09
  1 2969 6.34195840E-09
  1 2972 6.34195840E-09
  1 2973 6.34195840E-09
  1 2978 6.34195840E-09
  1 2980 6.34195840E-09
  1 2981 6.34195840E-09
  1 2987 6.34195840E-09
  1 2996 6.34195840E-09
  1 3000 6.34195840E-09
  1 3011 6.34195840E-09
  1 3017 6.34195840E-09
  1 3026 6.34195840E-09
  1 3027 6.34195840E-09
  1 3030 6.34195840E-09
  1 3032 6.34195840E-09
  1 3038 6.34195840E-09
  1 3039 6.34195840E-09
  1 3042 6.34195840E-09
  1 3044 6.34195840E-09
  1 3048 6.34195840E-09
  1 3049 6.34195840E-09
  1 3051 6.34195840E-09
  1 3052 6.34195840E-09
  1 3054 6.34195840E-09
  1 3056 6.34195840E-09
  1 3058 6.34195840E-09
  1 3075 6.34195840E-09
  1 3076 6.34195840E-09
  1 3077 6.34195840E-09
  1 3084 6.34195840E-09
  1 3085 6.34195840E-09
  1 3093 6.34195840E-09
  1 3095 6.34195840E-09
  1 3097 6.34195840E-09
  1 3105 6.34195840E-09
  1 3114 6.34195840E-09
  1 3121 6.34195840E-09
  1 3124 6.34195840E-09
  1 3132 6.34195840E-09
  1 3133 6.34195840E-09
  1 3143 6.34195840E-09
  1 3144 6.34195840E-09
  1 3146 6.34195840E-09
  1 3147 6.34195840E-09
  1 3151 6.34195840E-09
  1 3152 6.34195840E-09
  1 3153 6.34195840E-09
  1 3155 6.34195840E-09
  1 3157 6.34195840E-09
  1 3158 6.34195840E-09
  1 3166 6.34195840E-09
  1 3168 6.34195840E-09
  1 3170 6.34195840E-09
  1 3175 6.34195840E-09
  1 3178 6.34195840E-09
  1 3194 6.34195840E-09
  1 3204 6.34195840E-09
  1 3213 6.34195840E-09
  1 3222 6.34195840E-09
  1 3223 6.34195840E-09
  1 3229 6.34195840E-09
  1 3230 6.34195840E-09
  1 3231 6.34195840E-09
  1 3240 6.34195840E-09
  1 3241 6.34195840E-09
  1 3244 6.34195840E-09
  1 3245 6.34195840E-09
  1 3249 6.34195840E-09
  1 3250 6.34195840E-09
  1 3253 6.34195840E-09
  1 3255 6.34195840E-09
  1 3256 6.34195840E-09
  1 3257 6.34195840E-09
  1 3258 6.34195840E-09
  1 3262 6.34195840E-09
  1 3271 6.34195840E-09
  1 3279 6.34195840E-09
  1 3281 6.34195840E-09
  1 3285 6.34195840E-09
  1 3298 6.34195840E-09
  1 3303 6.34195840E-09
  1 3311 6.34195840E-09
  1 3313 6.34195840E-09
  1 3318 6.34195840E-09
  1 3321 6.34195840E-09
  1 3328 6.34195840E-09
  1 3330 6.34195840E-09
  1 3333 6.34195840E-09
  1 3342 6.34195840E-09
  1 3343 6.34195840E-09
  1 3346 6.34195840E-09
  1 3349 6.34195840E-09
  1 3350 6.34195840E-09
  1 3355 6.34195840E-09
  1 3356 6.34195840E-09
  1 3358 6.34195840E-09
  1 3360 6.34195840E-09
  1 3370 6.34195840E-09
  1 3371 6.34195840E-09
  1 3379 6.34195840E-09
  1 3382 6.34195840E-09
  1 3386 6.34195840E-09
  1 3387 6.34195840E-09
  1 3390 6.34195840E-09
  1 3391 6.34195840E-09
  1 3400 6.34195840E-09
  1 3404 6.34195840E-09
  1 3416 6.34195840E-09
  1 3427 6.34195840E-09
  1 3434 6.34195840E-09
  1 3435 6.34195840E-09
  1 3438 6.34195840E-09
  1 3442 6.34195840E-09
  1 3443 6.34195840E-09
  1 3451 6.34195840E-09
  1 3454 6.34195840E-09
  1 3456 6.34195840E-09
  1 3459 6.34195840E-09
  1 3462 6.34195840E-09
  1 3465 6.34195840E-09
  1 3467 6.34195840E-09
  1 3470 6.34195840E-09
  1 3471 6.34195840E-09
  1 3473 6.34195840E-09
  1 3493 6.34195840E-09
  1 3496 6.34195840E-09
  1 3498 6.34195840E-09
  1 3500 6.34195840E-09
  1 3503 6.34195840E-09
  1 3505 6.34195840E-09
  1 3506 6.34195840E-09
  1 3516 6.34195840E-09
  1 3517 6.34195840E-09
  1 3523 6.34195840E-09
  1 3524 6.34195840E-09
  1 3530 6.34195840E-09
  1 3531 6.34195840E-09
  1 3535 6.34195840E-09
  1 3536 6.34195840E-09
  1 3543 6.34195840E-09
  1 3544 6.34195840E-09
  1 3546 6.34195840E-09
  1 3550 6.34195840E-09
  1 3551 6.34195840E-09
  1 3552 6.34195840E-09
  1 3553 6.34195840E-09
  1 3559 6.34195840E-09
  1 3561 6.34195840E-09
  1 3562 6.34195840E-09
  1 3563 6.34195840E-09
  1 3566 6.34195840E-09
  1 3576 6.34195840E-09
  1 3591 6.34195840E-09
  1 3592 6.34195840E-09
  1 3594 6.34195840E-09
  1 3597 6.34195840E-09
  1 3599 6.34195840E-09
  1 3607 6.34195840E-09
  1 3608 6.34195840E-09
  1 3610 6.34195840E-09
  1 3613 6.34195840E-09
  1 3619 6.34195840E-09
  1 3627 6.34195840E-09
  1 3630 6.34195840E-09
  1 3631 6.34195840E-09
  1 3632 6.34195840E-09
  1 3643 6.34195840E-09
  1 3646 6.34195840E-09
  1 3648 6.34195840E-09
  1 3656 6.34195840E-09
  1 3658 6.34195840E-09
  1 3659 6.34195840E-09
  1 3660 6.34195840E-09
  1 3666 6.34195840E-09
  1 3667 6.34195840E-09
  1 3669 6.34195840E-09
  1 3670 6.34195840E-09
  1 3672 6.34195840E-09
  1 3678 6.34195840E-09
  1 3679 6.34195840E-09
  1 3681 6.34195840E-09
  1 3683 6.34195840E-09
  1 3690 6.34195840E-09
  1 3705 6.34195840E-09
  1 3714 6.34195840E-09
  1 3723 6.34195840E-09
  1 3724 6.34195840E-09
  1 3730 6.34195840E-09
  1 3733 6.34195840E-09
  1 3734 6.34195840E-09
  1 3743 6.34195840E-09
  1 3748 6.34195840E-09
  1 3752 6.34195840E-09
  1 3753 6.34195840E-09
  1 3754 6.34195840E-09
  1 3759 6.34195840E-09
  1 3761 6.34195840E-09
  1 3762 6.34195840E-09
  1 3765 6.34195840E-09
  1 3766 6.34195840E-09
  1 3768 6.34195840E-09
  1 3770 6.34195840E-09
  1 3780 6.34195840E-09
  1 3781 6.34195840E-09
  1 3785 6.34195840E-09
  1 3786 6.34195840E-09
  1 3787 6.34195840E-09
  1 3789 6.34195840E-09
  1 3802 6.34195840E-09
  1 3806 6.34195840E-09
  1 3808 6.34195840E-09
  1 3815 6.34195840E-09
  1 3817 6.34195840E-09
  1 3823 6.34195840E-09
  1 3828 6.34195840E-09
  1 3831 6.34195840E-09
  1 3836 6.34195840E-09
  1 3838 6.34195840E-09
  1 3846 6.34195840E-09
  1 3848 6.34195840E-09
  1 3853 6.34195840E-09
  1 3854 6.34195840E-09
  1 3855 6.34195840E-09
  1 3856 6.34195840E-09
  1 3861 6.34195840E-09
  1 3862 6.34195840E-09
  1 3864 6.34195840E-09
  1 3866 6.34195840E-09
  1 3868 6.34195840E-09
  1 3877 6.34195840E-09
  1 3890 6.34195840E-09
  1 3892 6.34195840E-09
  1 3902 6.34195840E-09
  1 3903 6.34195840E-09
  1 3906 6.34195840E-09
  1 3907 6.34195840E-09
  1 3915 6.34195840E-09
  1 3916 6.34195840E-09
  1 3917 6.34195840E-09
  1 3924 6.34195840E-09
  1 3927 6.34195840E-09
  1 3935 6.34195840E-09
  1 3936 6.34195840E-09
  1 3937 6.34195840E-09
  1 3947 6.34195840E-09
  1 3948 6.34195840E-09
  1 3949 6.34195840E-09
  1 3956 6.34195840E-09
  1 3958 6.34195840E-09
  1 3961 6.34195840E-09
  1 3963 6.34195840E-09
  1 3964 6.34195840E-09
  1 3965 6.34195840E-09
  1 3967 6.34195840E-09
  1 3968 6.34195840E-09
  1 3971 6.34195840E-09
  1 3983 6.34195840E-09
  1 3986 6.34195840E-09
  1 3987 6.34195840E-09
  1 3991 6.34195840E-09
  1 3996 6.34195840E-09
  1 4001 6.34195840E-09
  1 4005 6.34195840E-09
  1 4006 6.34195840E-09
  1 4008 6.34195840E-09
  1 4014 6.34195840E-09
  1 4015 6.34195840E-09
  1 4030 6.34195840E-09
  1 4035 6.34195840E-09
  1 4043 6.34195840E-09
  1 4045 6.34195840E-09
  1 4046 6.34195840E-09
  1 4047 6.34195840E-09
  1 4048 6.34195840E-09
  1 4055 6.34195840E-09
  1 4060 6.34195840E-09
  1 4061 6.34195840E-09
  1 4062 6.34195840E-09
  1 4064 6.34195840E-09
END period  1

