# File generated by Flopy version 3.8.2 on 11/05/2024 at 17:39:17.
BEGIN options
  SAVE_SPECIFIC_DISCHARGE
END options

BEGIN griddata
  icelltype  LAYERED
    CONSTANT  1
    CONSTANT  1
    CONSTANT  0
  k  LAYERED
    CONSTANT  1.00000000E-05
    CONSTANT  5.00000000E-04
    CONSTANT  2.00000000E-04
END griddata

