# File generated by Flopy version 3.8.2 on 11/05/2024 at 17:39:17.
BEGIN options
  BUDGET  FILEOUT  geo_model.cbc
  HEAD  FILEOUT  geo_model.hds
END options

BEGIN period  1
  SAVE  HEAD  ALL
  SAVE  BUDGET  ALL
END period  1

