# File generated by Flopy version 3.8.2 on 11/05/2024 at 17:39:17.
BEGIN options
END options

BEGIN timing
  TDIS6  geo_model.tdis
END timing

BEGIN models
  gwf6  geo_model.nam  geo_model
END models

BEGIN exchanges
END exchanges

BEGIN solutiongroup  1
  ims6  geo_model.ims  geo_model
END solutiongroup  1

