# File generated by Flopy version 3.8.2 on 11/05/2024 at 13:26:18.
BEGIN OPTIONS
  BUDGET  FILEOUT  freyberg.cbc
  HEAD  FILEOUT  freyberg.hds
END OPTIONS

BEGIN PERIOD  1
  SAVE  head  all
  SAVE  budget  all
  PRINT  budget  all
END PERIOD  1

