# File generated by Flopy version 3.8.2 on 11/05/2024 at 13:26:18.
BEGIN OPTIONS
  PRINT_INPUT
  PRINT_FLOWS
  SAVE_FLOWS
END OPTIONS

BEGIN DIMENSIONS
  MAXBOUND  10
END DIMENSIONS

BEGIN PERIOD  1
  1 40 6 1.69000000E+01
  1 40 7 1.64000000E+01
  1 40 8 1.61000000E+01
  1 40 9 1.56000000E+01
  1 40 10 1.51000000E+01
  1 40 11 1.51000000E+01
  1 40 12 1.40000000E+01
  1 40 13 1.30000000E+01
  1 40 14 1.25000000E+01
  1 40 15 1.20000000E+01
END PERIOD  1

