# File generated by Flopy version 3.8.2 on 11/05/2024 at 13:26:18.
BEGIN OPTIONS
  SAVE_FLOWS
END OPTIONS

BEGIN GRIDDATA
  iconvert
    CONSTANT  1
  ss
    CONSTANT  1.00000000E-05
  sy
    CONSTANT       0.20000000
END GRIDDATA

BEGIN PERIOD  1
  STEADY-STATE
END PERIOD  1

