# File generated by Flopy version 3.8.2 on 11/05/2024 at 13:26:18.
BEGIN OPTIONS
  PRINT_INPUT
  PRINT_FLOWS
  SAVE_FLOWS
END OPTIONS

BEGIN DIMENSIONS
  MAXBOUND  40
END DIMENSIONS

BEGIN PERIOD  1
  1 1 15 2.01000000E+01 5.00000000E-02 2.00000000E+01
  1 2 15 1.98700000E+01 5.00000000E-02 1.97500000E+01
  1 3 15 1.96500000E+01 5.00000000E-02 1.95000000E+01
  1 4 15 1.94200000E+01 5.00000000E-02 1.92500000E+01
  1 5 15 1.91900000E+01 5.00000000E-02 1.90000000E+01
  1 6 15 1.89700000E+01 5.00000000E-02 1.87500000E+01
  1 7 15 1.87400000E+01 5.00000000E-02 1.85000000E+01
  1 8 15 1.85100000E+01 5.00000000E-02 1.82500000E+01
  1 9 15 1.82800000E+01 5.00000000E-02 1.80000000E+01
  1 10 15 1.90600000E+01 5.00000000E-02 1.77500000E+01
  1 11 15 1.78300000E+01 5.00000000E-02 1.75000000E+01
  1 12 15 1.76000000E+01 5.00000000E-02 1.72500000E+01
  1 13 15 1.73800000E+01 5.00000000E-02 1.70000000E+01
  1 14 15 1.71500000E+01 5.00000000E-02 1.67500000E+01
  1 15 15 1.69200000E+01 5.00000000E-02 1.65000000E+01
  1 16 15 1.67000000E+01 5.00000000E-02 1.62500000E+01
  1 17 15 1.64700000E+01 5.00000000E-02 1.60000000E+01
  1 18 15 1.62400000E+01 5.00000000E-02 1.57500000E+01
  1 19 15 1.60200000E+01 5.00000000E-02 1.55000000E+01
  1 20 15 1.57900000E+01 5.00000000E-02 1.52500000E+01
  1 21 15 1.55600000E+01 5.00000000E-02 1.50000000E+01
  1 22 15 1.53300000E+01 5.00000000E-02 1.47500000E+01
  1 23 15 1.51100000E+01 5.00000000E-02 1.45000000E+01
  1 24 15 1.48800000E+01 5.00000000E-02 1.42500000E+01
  1 25 15 1.46500000E+01 5.00000000E-02 1.40000000E+01
  1 26 15 1.44300000E+01 5.00000000E-02 1.37500000E+01
  1 27 15 1.42000000E+01 5.00000000E-02 1.35000000E+01
  1 28 15 1.39700000E+01 5.00000000E-02 1.32500000E+01
  1 29 15 1.37500000E+01 5.00000000E-02 1.30000000E+01
  1 30 15 1.35200000E+01 5.00000000E-02 1.27500000E+01
  1 31 15 1.32900000E+01 5.00000000E-02 1.25000000E+01
  1 32 15 1.30700000E+01 5.00000000E-02 1.22500000E+01
  1 33 15 1.28400000E+01 5.00000000E-02 1.20000000E+01
  1 34 15 1.26100000E+01 5.00000000E-02 1.17500000E+01
  1 35 15 1.23800000E+01 5.00000000E-02 1.15000000E+01
  1 36 15 1.21600000E+01 5.00000000E-02 1.12500000E+01
  1 37 15 1.19300000E+01 5.00000000E-02 1.10000000E+01
  1 38 15 1.17000000E+01 5.00000000E-02 1.07500000E+01
  1 39 15 1.14800000E+01 5.00000000E-02 1.05000000E+01
  1 40 15 1.12500000E+01 5.00000000E-02 1.02500000E+01
END PERIOD  1

