# File generated by Flopy version 3.8.2 on 11/05/2024 at 13:26:18.
BEGIN options
  PRINT_OPTION  summary
END options

BEGIN nonlinear
  OUTER_DVCLOSE  1.00000000E-08
  OUTER_MAXIMUM  500
  UNDER_RELAXATION  none
END nonlinear

BEGIN linear
  INNER_MAXIMUM  100
  INNER_DVCLOSE  1.00000000E-09
  inner_rclose  1.00000000E-06  strict
  LINEAR_ACCELERATION  cg
  RELAXATION_FACTOR       0.97000000
  SCALING_METHOD  none
  REORDERING_METHOD  none
END linear

