# File generated by Flopy version 3.8.2 on 11/05/2024 at 13:26:18.
BEGIN OPTIONS
  READASARRAYS
  PRINT_INPUT
  PRINT_FLOWS
  SAVE_FLOWS
END OPTIONS

BEGIN PERIOD  1
  recharge
    CONSTANT  1.60000000E-09
END PERIOD  1

