MODPATH_TIMESERIES_FILE         7         2
    1   0.0000000000E+00  0.0000000000E+00  0.0000000000E+00  0.0000000000E+00
END HEADER
       0       1  0.0000000000E+00         1    1         1        43  0.5000000000E+00  0.5000000000E+00  0.5000000000E+00  0.6250000000E+03  0.9375000000E+04  0.2264119527E+02         1
       0       1  0.0000000000E+00         2    1         2        44  0.5000000000E+00  0.5000000000E+00  0.5000000000E+00  0.8750000000E+03  0.9375000000E+04  0.1980596097E+02         1
       0       1  0.0000000000E+00         3    1         3        63  0.5000000000E+00  0.5000000000E+00  0.5000000000E+00  0.6250000000E+03  0.9125000000E+04  0.2319395955E+02         1
       0       1  0.0000000000E+00         4    1         4        64  0.5000000000E+00  0.5000000000E+00  0.5000000000E+00  0.8750000000E+03  0.9125000000E+04  0.2078577700E+02         1
       0       1  0.0000000000E+00         5    2         1        85  0.5000000000E+00  0.5000000000E+00  0.5000000000E+00  0.1125000000E+04  0.8875000000E+04  0.2080498395E+02         1
       0       1  0.0000000000E+00         6    2         2        86  0.5000000000E+00  0.5000000000E+00  0.5000000000E+00  0.1375000000E+04  0.8875000000E+04  0.1979386590E+02         1
       0       1  0.0000000000E+00         7    2         3       105  0.5000000000E+00  0.5000000000E+00  0.5000000000E+00  0.1125000000E+04  0.8625000000E+04  0.2007276039E+02         1
       0       1  0.0000000000E+00         8    2         4       106  0.5000000000E+00  0.5000000000E+00  0.5000000000E+00  0.1375000000E+04  0.8625000000E+04  0.2036251565E+02         1
       0       1  0.0000000000E+00         9    3         1       569  0.5000000000E+00  0.5000000000E+00  0.5000000000E+00  0.2125000000E+04  0.2875000000E+04  0.1174840714E+02         1
       0       1  0.0000000000E+00        10    3         2       570  0.5000000000E+00  0.5000000000E+00  0.5000000000E+00  0.2375000000E+04  0.2875000000E+04  0.1094532585E+02         1
       0       1  0.0000000000E+00        11    3         3       589  0.5000000000E+00  0.5000000000E+00  0.5000000000E+00  0.2125000000E+04  0.2625000000E+04  0.1165756431E+02         1
       0       1  0.0000000000E+00        12    3         4       590  0.5000000000E+00  0.5000000000E+00  0.5000000000E+00  0.2375000000E+04  0.2625000000E+04  0.1070315292E+02         1
       0       1  0.0000000000E+00        13    4         1       485  0.5000000000E+00  0.5000000000E+00  0.5000000000E+00  0.1125000000E+04  0.3875000000E+04  0.1779603131E+02         1
       0       1  0.0000000000E+00        14    4         2       486  0.5000000000E+00  0.5000000000E+00  0.5000000000E+00  0.1375000000E+04  0.3875000000E+04  0.1446154849E+02         1
       0       1  0.0000000000E+00        15    4         3       505  0.5000000000E+00  0.5000000000E+00  0.5000000000E+00  0.1125000000E+04  0.3625000000E+04  0.1537350557E+02         1
       0       1  0.0000000000E+00        16    4         4       506  0.5000000000E+00  0.5000000000E+00  0.5000000000E+00  0.1375000000E+04  0.3625000000E+04  0.1387489697E+02         1
