# MPSIM package for MODPATH 7 generated by Flopy 3.8.2
mf6-freyberg-vtk-pathlines_mp.mpnam
mf6-freyberg-vtk-pathlines_mp.mplst
4 1 2 2 1 0
mf6-freyberg-vtk-pathlines_mp.mpend
mf6-freyberg-vtk-pathlines_mp.mppth
mf6-freyberg-vtk-pathlines_mp.timeseries
0
2
1 1 0
2
2
1
   0.000000E+00
2
-1
INTERNAL               1    (20I10) -1 #zones layer 1                 
         1         1         1         1         1         1         1         1         1         1         1         1         1         1         3         1         1         1         1         1
         1         1         1         1         1         1         1         1         1         1         1         1         1         1         3         1         1         1         1         1
         1         1         1         1         1         1         1         1         1         1         1         1         1         1         3         1         1         1         1         1
         1         1         1         1         1         1         1         1         1         1         1         1         1         1         3         1         1         1         1         1
         1         1         1         1         1         1         1         1         1         1         1         1         1         1         3         1         1         1         1         1
         1         1         1         1         1         1         1         1         1         1         1         1         1         1         3         1         1         1         1         1
         1         1         1         1         1         1         1         1         1         1         1         1         1         1         3         1         1         1         1         1
         1         1         1         1         1         1         1         1         1         1         1         1         1         1         3         1         1         1         1         1
         1         1         1         1         1         1         1         1         1         1         1         1         1         1         3         2         1         1         1         1
         1         1         1         1         1         1         1         1         1         1         1         1         1         1         3         1         1         1         1         1
         1         1         1         1         1         1         1         1         1         1         1         1         2         1         3         1         1         1         1         1
         1         1         1         1         1         1         1         1         1         1         1         1         1         1         3         1         1         1         1         1
         1         1         1         1         1         1         1         1         1         1         1         1         1         1         3         1         1         1         1         1
         1         1         1         1         1         1         1         1         1         1         1         1         1         1         3         1         1         1         1         1
         1         1         1         1         1         1         1         1         1         1         1         1         1         1         3         1         1         1         1         1
         1         1         1         1         1         1         1         1         1         1         1         1         1         1         3         1         1         1         1         1
         1         1         1         1         1         1         1         1         1         1         1         1         1         1         3         1         1         1         1         1
         1         1         1         1         1         1         1         1         1         1         1         1         1         1         3         1         1         1         1         1
         1         1         1         1         1         1         1         1         1         1         1         1         1         1         3         1         1         1         1         1
         1         1         1         1         1         1         1         1         1         1         1         1         1         2         3         1         1         1         1         1
         1         1         1         1         1         1         1         1         1         1         1         1         1         1         3         1         1         1         1         1
         1         1         1         1         1         1         1         1         1         1         1         1         1         1         3         1         1         1         1         1
         1         1         1         1         1         1         1         1         1         1         1         1         1         1         3         1         1         1         1         1
         1         1         1         1         1         1         1         1         1         1         1         1         1         1         3         1         1         1         1         1
         1         1         1         1         1         1         1         1         1         1         1         1         1         1         3         1         1         1         1         1
         1         1         1         1         1         1         1         1         1         2         1         1         1         1         3         1         1         1         1         1
         1         1         1         1         1         1         1         1         1         1         1         1         1         1         3         1         1         1         1         1
         1         1         1         1         1         1         1         1         1         1         1         1         1         1         3         1         1         1         1         1
         1         1         1         1         1         2         1         1         1         1         1         1         1         1         3         1         1         1         1         1
         1         1         1         1         1         1         1         1         1         1         1         1         1         1         3         1         1         1         1         1
         1         1         1         1         1         1         1         1         1         1         1         1         1         1         3         1         1         1         1         1
         1         1         1         1         1         1         1         1         1         1         1         1         1         1         3         1         1         1         1         1
         1         1         1         1         1         1         1         1         1         1         1         1         1         1         3         1         1         1         1         1
         1         1         1         1         1         1         1         1         1         1         1         2         1         1         3         1         1         1         1         1
         1         1         1         1         1         1         1         1         1         1         1         1         1         1         3         1         1         1         1         1
         1         1         1         1         1         1         1         1         1         1         1         1         1         1         3         1         1         1         1         1
         1         1         1         1         1         1         1         1         1         1         1         1         1         1         3         1         1         1         1         1
         1         1         1         1         1         1         1         1         1         1         1         1         1         1         3         1         1         1         1         1
         1         1         1         1         1         1         1         1         1         1         1         1         1         1         3         1         1         1         1         1
         1         1         1         1         1         1         1         1         1         1         1         1         1         1         3         1         1         1         1         1
1
4
PG1
1
0.0
EXTERNAL mf6-freyberg-vtk-pathlines.pg1.sloc
PG2
1
0.0
EXTERNAL mf6-freyberg-vtk-pathlines.pg2.sloc
PG3
1
0.0
EXTERNAL mf6-freyberg-vtk-pathlines.pg3.sloc
PG4
1
0.0
EXTERNAL mf6-freyberg-vtk-pathlines.pg4.sloc
