# Name file for MODPATH 7, generated by Flopy version 3.8.2.
MPBAS      mf6-freyberg-vtk-pathlines_mp.mpbas
GRBDIS     .\freyberg.dis.grb
TDIS       .\freyberg.tdis
HEAD       .\freyberg.hds
BUDGET     .\freyberg.cbc
