# File generated by Flopy version 3.8.2 on 11/05/2024 at 13:26:18.
BEGIN OPTIONS
END OPTIONS

BEGIN TIMING
  TDIS6  freyberg.tdis
END TIMING

BEGIN MODELS
  gwf6  freyberg.nam  freyberg
END MODELS

BEGIN EXCHANGES
END EXCHANGES

BEGIN SOLUTIONGROUP  1
  MXITER  1
  ims6  freyberg.ims  freyberg
END SOLUTIONGROUP  1

