# Name file for MODPATH 7, generated by Flopy version 3.3.5.
MPBAS      regional_modela_mp.mpbas
GRBDISV    regional_model.disv.grb
TDIS       regional_model.tdis
HEAD       regional_model.hds
BUDGET     regional_model.cbc
