# File generated by Flopy version 3.3.5 on 09/29/2022 at 15:28:47.
BEGIN options
END options

BEGIN dimensions
  MAXBOUND  113
END dimensions

BEGIN period  1
  1 1628      -0.46093750       0.00100000
  1 1630      -0.46093750       0.00100000
  1 1631      -0.46093750       0.00100000
  1 1640      -0.46093750       0.00100000
  1 1644      -0.46093750       0.00100000
  1 1646      -0.46093750       0.00100000
  1 1651      -0.46093750       0.00100000
  1 1652      -0.46093750       0.00100000
  1 1657      -0.46093750       0.00100000
  1 1664      -0.46093750       0.00100000
  1 1665      -0.46093750       0.00100000
  1 1677      -0.46093750       0.00100000
  1 1685      -0.46093750       0.00100000
  1 1686      -0.46093750       0.00100000
  1 1700      -0.46093750       0.00100000
  1 1708      -0.46093750       0.00100000
  1 1714      -0.46093750       0.00100000
  1 1737      -0.46093750       0.00100000
  1 1750      -0.46093750       0.00100000
  1 1753      -0.46093750       0.00100000
  1 1755      -0.46093750       0.00100000
  1 1756      -0.46093750       0.00100000
  1 1757      -0.46093750       0.00100000
  1 1759      -0.46093750       0.00100000
  1 1761      -0.46093750       0.00100000
  1 1762      -0.46093750       0.00100000
  1 1769      -0.46093750       0.00100000
  1 1770      -0.46093750       0.00100000
  1 1775      -0.46093750       0.00100000
  1 1781      -0.46093750       0.00100000
  1 1787      -0.46093750       0.00100000
  1 1795      -0.46093750       0.00100000
  1 1802      -0.46093750       0.00100000
  1 1805      -0.46093750       0.00100000
  1 1810      -0.46093750       0.00100000
  1 1829      -0.46093750       0.00100000
  1 1837      -0.46093750       0.00100000
  1 1867      -0.24218750       0.00100000
  1 1874      -0.37500000       0.00100000
  1 1893      -0.22656250       0.00100000
  1 1897      -0.22656250       0.00100000
  1 1902      -0.22656250       0.00100000
  1 1905      -0.22656250       0.00100000
  1 1916      -0.22656250       0.00100000
  1 1927      -0.22656250       0.00100000
  1 1936      -0.22656250       0.00100000
  1 1965      -0.22656250       0.00100000
  1 1970      -0.22656250       0.00100000
  1 1977      -0.22656250       0.00100000
  1 1979      -0.22656250       0.00100000
  1 1987      -0.22656250       0.00100000
  1 2007      -0.22656250       0.00100000
  1 2012      -0.18750000       0.00100000
  1 2023      -0.16406250       0.00100000
  1 2036      -0.16406250       0.00100000
  1 2048      -0.16406250       0.00100000
  1 2051      -0.16406250       0.00100000
  1 2059      -0.16406250       0.00100000
  1 2063      -0.16406250       0.00100000
  1 2089      -0.16406250       0.00100000
  1 2109      -0.16406250       0.00100000
  1 2112      -0.16406250       0.00100000
  1 2118      -0.16406250       0.00100000
  1 2126      -0.16406250       0.00100000
  1 2131      -0.16406250       0.00100000
  1 2147      -0.16406250       0.00100000
  1 2177      -0.16406250       0.00100000
  1 2181      -0.16406250       0.00100000
  1 2190      -0.16406250       0.00100000
  1 2202      -0.16406250       0.00100000
  1 2209      -0.14843750       0.00100000
  1 2231      -0.16406250       0.00100000
  1 2253      -0.16406250       0.00100000
  1 2266      -0.13281250       0.00100000
  1 2271      -0.13281250       0.00100000
  1 2282      -0.13281250       0.00100000
  1 2314      -0.13281250       0.00100000
  1 2334      -0.13281250       0.00100000
  1 2341      -0.13281250       0.00100000
  1 2342      -0.13281250       0.00100000
  1 2345      -0.13281250       0.00100000
  1 2369      -0.13281250       0.00100000
  1 2374      -0.13281250       0.00100000
  1 2390      -0.13281250       0.00100000
  1 2396      -0.13281250       0.00100000
  1 2430      -0.13281250       0.00100000
  1 2434      -0.13281250       0.00100000
  1 2438      -0.13281250       0.00100000
  1 2493      -0.13281250       0.00100000
  1 2500      -0.13281250       0.00100000
  1 2501      -0.13281250       0.00100000
  1 2508      -0.13281250       0.00100000
  1 2513      -0.13281250       0.00100000
  1 2516      -0.13281250       0.00100000
  1 2522      -0.13281250       0.00100000
  1 2556      -0.13281250       0.00100000
  1 2567      -0.13281250       0.00100000
  1 2585      -0.13281250       0.00100000
  1 2595      -0.13281250       0.00100000
  1 2601      -0.13281250       0.00100000
  1 2614      -0.13281250       0.00100000
  1 2638      -0.10156250       0.00100000
  1 2648      -0.13281250       0.00100000
  1 2677      -0.13281250       0.00100000
  1 2678      -0.13281250       0.00100000
  1 2679      -0.13281250       0.00100000
  1 2697      -0.13281250       0.00100000
  1 2703      -0.13281250       0.00100000
  1 2714      -0.13281250       0.00100000
  1 2715      -0.13281250       0.00100000
  1 2740      -0.13281250       0.00100000
  1 2764       0.30468750       0.00100000
  1 2770      -0.13281250       0.00100000
END period  1

