# File generated by Flopy version 3.3.5 on 10/13/2022 at 08:50:01.
BEGIN griddata
  strt  LAYERED
    INTERNAL  FACTOR  1.0
         470.59375000     469.56250000     468.68750000     467.78125000     466.87500000     465.96875000     465.06250000     464.15625000     463.25000000     462.34375000     461.43750000     460.40625000     468.71875000     467.78125000     466.87500000     465.96875000     465.06250000     464.15625000     463.25000000     462.34375000
         461.40625000     467.78125000     466.87500000     465.96875000     465.06250000     464.15625000     463.12500000     466.87500000     465.93750000     465.06250000     464.15625000     463.28125000     483.15625000     482.28125000     481.37500000     480.46875000     479.56250000     478.65625000     477.75000000     476.84375000
         475.93750000     475.03125000     474.12500000     473.21875000     472.31250000     471.40625000     458.71875000     457.78125000     456.87500000     456.00000000     455.09375000     454.18750000     453.25000000     483.12500000     482.28125000     481.37500000     480.46875000     479.56250000     478.65625000     477.75000000
         476.84375000     475.93750000     475.03125000     474.12500000     473.21875000     472.31250000     471.40625000     470.50000000     459.62500000     458.71875000     457.81250000     456.90625000     456.00000000     455.09375000     454.18750000     453.25000000     483.12500000     482.28125000     481.37500000     480.46875000
         479.56250000     478.65625000     477.75000000     476.84375000     475.93750000     475.03125000     474.12500000     473.21875000     472.31250000     471.40625000     470.50000000     469.59375000     460.56250000     459.62500000     458.71875000     457.81250000     456.90625000     456.00000000     455.09375000     454.18750000
         453.28125000     483.12500000     482.28125000     481.37500000     480.46875000     479.56250000     478.65625000     477.75000000     476.84375000     475.93750000     475.03125000     474.12500000     473.21875000     472.31250000     471.40625000     470.50000000     469.59375000     468.50000000     462.46875000     461.40625000
         460.53125000     459.62500000     458.71875000     457.81250000     456.90625000     456.00000000     455.09375000     454.18750000     453.28125000     476.31250000     460.00000000     412.00000000     411.34375000     410.71875000     410.09375000     409.68750000     409.31250000     409.21875000     409.09375000     408.96875000
         408.62500000     408.50000000     408.40625000     408.28125000     407.90625000     449.46875000     449.18750000     448.90625000     448.62500000     448.37500000     448.09375000     447.84375000     447.56250000     447.28125000     447.03125000     446.75000000     446.50000000     446.21875000     445.96875000     445.68750000
         445.40625000     445.15625000     444.87500000     444.62500000     444.34375000     444.09375000     443.81250000     443.53125000     443.28125000     443.00000000     442.75000000     442.46875000     442.21875000     441.93750000     441.65625000     441.40625000     441.12500000     440.87500000     440.59375000     440.34375000
         440.06250000     439.75000000     438.18750000     437.90625000     437.65625000     437.37500000     437.12500000     436.84375000     436.59375000     436.31250000     436.03125000     435.78125000     435.50000000     435.25000000     434.96875000     434.71875000     434.43750000     434.15625000     433.90625000     433.62500000
         433.37500000     433.09375000     432.84375000     432.56250000     432.40625000     434.81250000     413.18750000     411.46875000     409.87500000     408.28125000     407.40625000     407.12500000     406.87500000     406.59375000     406.34375000     406.06250000     405.81250000     405.53125000     405.28125000     405.00000000
         404.75000000     404.46875000     404.21875000     403.93750000     403.65625000     403.40625000     403.12500000     402.87500000     402.59375000     402.34375000     402.06250000     401.81250000     401.53125000     401.25000000     401.00000000     400.71875000     400.43750000     449.46875000     449.15625000     448.90625000
         448.62500000     448.37500000     448.09375000     447.84375000     447.56250000     447.28125000     447.03125000     446.75000000     446.50000000     446.21875000     445.96875000     445.68750000     445.40625000     445.15625000     444.87500000     444.62500000     444.34375000     444.09375000     443.81250000     443.53125000
         443.28125000     443.00000000     442.75000000     442.46875000     442.21875000     441.93750000     441.65625000     441.40625000     441.12500000     440.87500000     440.59375000     440.34375000     440.06250000     439.75000000     438.18750000     437.90625000     437.65625000     437.37500000     437.12500000     436.84375000
         436.59375000     436.31250000     436.03125000     435.78125000     435.50000000     435.25000000     434.96875000     434.71875000     434.43750000     434.15625000     433.90625000     433.62500000     433.37500000     433.09375000     432.84375000     432.56250000     432.31250000     432.06250000     431.81250000     432.25000000
         434.81250000     413.78125000     412.28125000     410.71875000     409.12500000     408.71875000     408.46875000     408.21875000     407.93750000     407.68750000     407.40625000     407.15625000     406.87500000     406.62500000     406.34375000     406.09375000     405.81250000     405.53125000     405.28125000     405.00000000
         404.75000000     404.46875000     404.21875000     403.93750000     403.65625000     403.40625000     403.12500000     402.87500000     402.59375000     402.31250000     402.06250000     401.78125000     401.53125000     401.25000000     401.00000000     400.71875000     400.43750000     449.46875000     449.15625000     448.90625000
         448.62500000     448.37500000     448.09375000     447.84375000     447.56250000     447.28125000     447.03125000     446.75000000     446.50000000     446.21875000     445.96875000     445.68750000     445.40625000     445.15625000     444.87500000     444.62500000     444.34375000     444.09375000     443.81250000     443.53125000
         443.28125000     443.00000000     442.75000000     442.46875000     442.21875000     441.93750000     441.65625000     441.40625000     441.12500000     440.87500000     440.59375000     440.34375000     440.06250000     439.75000000     438.18750000     437.90625000     437.65625000     437.37500000     437.12500000     436.84375000
         436.59375000     436.31250000     436.03125000     435.78125000     435.50000000     435.25000000     434.96875000     434.71875000     434.43750000     434.15625000     433.90625000     433.62500000     433.37500000     433.09375000     432.84375000     432.56250000     432.25000000     432.00000000     431.71875000     431.46875000
         431.21875000     430.96875000     432.34375000     414.53125000     410.00000000     409.84375000     409.56250000     409.31250000     409.03125000     408.78125000     408.53125000     408.25000000     407.96875000     407.71875000     407.46875000     407.18750000     406.90625000     406.65625000     406.37500000     406.09375000
         406.34375000     406.65625000     406.62500000     406.21875000     405.78125000     405.34375000     404.93750000     404.75000000     404.31250000     403.90625000     403.46875000     403.06250000     402.59375000     402.31250000     402.06250000     401.78125000     401.53125000     401.25000000     400.96875000     400.71875000
         400.43750000     436.21875000     432.96875000     431.65625000     431.37500000     431.12500000     430.87500000     430.62500000     430.43750000     433.40625000     415.62500000     411.18750000     410.37500000     410.12500000     409.90625000     409.62500000     409.37500000     409.12500000     408.84375000     408.59375000
         409.46875000     410.65625000     434.15625000     431.03125000     430.75000000     430.50000000     430.28125000     430.06250000     431.21875000     416.81250000     412.62500000     410.96875000     410.75000000     410.50000000     410.25000000     410.00000000     411.90625000     412.87500000     431.15625000     430.15625000
         429.90625000     429.68750000     429.46875000     433.00000000     414.43750000     411.56250000     411.34375000     411.09375000     410.87500000     410.65625000     413.28125000     432.21875000     429.75000000     429.53125000     429.31250000     429.09375000     430.84375000     413.50000000     411.90625000     411.68750000
         411.46875000     411.28125000     413.18750000     429.43750000     429.15625000     428.93750000     428.71875000     428.65625000     412.78125000     412.28125000     412.06250000     411.84375000     413.18750000     430.84375000     428.75000000     428.56250000     428.37500000     428.18750000     416.81250000     412.84375000
         412.65625000     412.46875000     412.25000000     414.78125000     432.43750000     428.37500000     428.18750000     428.00000000     428.56250000     415.96875000     413.25000000     413.03125000     412.84375000     412.65625000     416.31250000     432.59375000     428.00000000     427.78125000     427.62500000     429.25000000
         413.59375000     413.40625000     413.21875000     413.31250000     431.43750000     427.59375000     427.40625000     427.25000000     429.96875000     413.93750000     413.78125000     413.59375000     415.00000000     430.00000000     427.21875000     427.03125000     426.84375000     430.28125000     415.59375000     414.18750000
         414.00000000     413.81250000     428.84375000     426.81250000     426.65625000     426.46875000     431.34375000     417.84375000     414.56250000     414.37500000     414.18750000     426.78125000     426.43750000     426.28125000     426.06250000     429.40625000     417.34375000     414.93750000     414.75000000     414.59375000
         416.93750000     432.00000000     426.25000000     426.09375000     425.87500000     425.68750000     427.53125000     416.78125000     415.34375000     415.12500000     414.93750000     415.68750000     431.53125000     426.46875000     425.71875000     425.50000000     425.31250000     425.28125000     429.96875000     416.15625000
         415.75000000     415.50000000     415.31250000     416.90625000     428.18750000     425.34375000     425.12500000     424.90625000     424.68750000     427.75000000     419.87500000     416.31250000     416.12500000     415.87500000     415.68750000     418.43750000     429.34375000     424.96875000     424.75000000     424.53125000
         424.31250000     424.15625000     428.03125000     419.75000000     416.93750000     416.71875000     416.46875000     416.28125000     416.09375000     420.00000000     430.46875000     425.25000000     424.40625000     424.15625000     423.93750000     423.71875000     425.03125000     419.96875000     417.56250000     417.34375000
         417.09375000     416.84375000     416.59375000     417.21875000     427.93750000     424.03125000     423.81250000     423.56250000     423.34375000     423.12500000     425.71875000     422.43750000     419.93750000     418.18750000     417.93750000     417.68750000     417.43750000     417.18750000     416.96875000     420.15625000
         426.28125000     423.43750000     423.21875000     422.96875000     422.71875000     422.46875000     422.18750000     421.90625000     422.09375000     422.81250000     423.50000000     424.46875000     423.78125000     422.25000000     420.75000000     419.62500000     419.34375000     419.09375000     418.81250000     418.56250000
         418.28125000     418.03125000     417.81250000     417.81250000     421.15625000     428.37500000     424.00000000     422.84375000     422.62500000     422.37500000     422.09375000     421.84375000     421.59375000     421.31250000     421.03125000     420.75000000     420.46875000     420.21875000     419.93750000     419.65625000
         419.40625000     419.12500000     418.87500000     418.59375000     418.40625000     419.21875000     426.56250000     423.43750000     422.34375000     422.06250000     421.81250000     421.53125000     421.28125000     421.00000000     420.75000000     420.50000000     420.25000000     419.96875000     419.71875000     419.43750000
         419.18750000     419.50000000     420.31250000     424.68750000     423.28125000     422.03125000     422.15625000     422.96875000     465.31250000     465.50000000     465.68750000     465.87500000     466.03125000     466.25000000     466.40625000     466.59375000     466.78125000     467.00000000     467.12500000     467.28125000
         467.43750000     467.59375000     467.75000000     467.90625000     468.06250000     468.25000000     468.37500000     468.53125000     468.65625000     468.81250000     468.96875000     469.12500000     469.25000000     469.34375000     469.46875000     469.59375000     469.68750000     469.81250000     469.93750000     470.03125000
         470.15625000     470.31250000     470.43750000     470.59375000     470.75000000     470.90625000     471.03125000     471.18750000     471.34375000     471.53125000     471.68750000     471.84375000     472.00000000     472.18750000     472.34375000     472.53125000     472.71875000     472.90625000     473.06250000     473.25000000
         473.43750000     473.62500000     473.78125000     474.00000000     474.15625000     474.34375000     474.53125000     474.71875000     474.87500000     475.06250000     475.25000000     475.43750000     475.59375000     475.81250000     475.96875000     476.15625000     476.34375000     476.53125000     476.68750000     476.87500000
         477.06250000     477.25000000     477.40625000     477.59375000     477.78125000     477.96875000     478.15625000     478.34375000     478.50000000     478.68750000     478.87500000     479.06250000     479.21875000     479.40625000     479.59375000     479.78125000     479.96875000     480.15625000     480.31250000     480.50000000
         480.68750000     480.87500000     481.03125000     481.21875000     481.40625000     481.59375000     481.78125000     481.93750000     482.12500000     482.31250000     482.50000000     482.68750000     482.84375000     483.03125000     483.21875000     483.46875000     483.50000000     483.28125000     483.12500000     482.93750000
         482.75000000     482.56250000     482.40625000     482.18750000     482.03125000     481.84375000     481.65625000     481.46875000     481.31250000     481.12500000     480.93750000     480.75000000     480.59375000     480.37500000     480.21875000     480.03125000     479.84375000     479.65625000     479.50000000     479.31250000
         479.12500000     478.93750000     478.78125000     478.59375000     478.40625000     478.21875000     478.03125000     477.84375000     477.68750000     477.50000000     477.31250000     477.12500000     476.96875000     476.78125000     476.59375000     476.40625000     476.21875000     476.03125000     475.87500000     475.68750000
         475.50000000     475.31250000     475.15625000     474.96875000     474.78125000     474.59375000     474.40625000     474.25000000     474.06250000     473.87500000     473.68750000     473.50000000     473.34375000     473.15625000     472.96875000     472.78125000     472.62500000     472.43750000     472.25000000     472.06250000
         471.87500000     471.65625000     471.50000000     471.31250000     471.15625000     471.00000000     470.81250000     470.65625000     470.46875000     470.31250000     470.15625000     470.00000000     469.87500000     469.71875000     469.56250000     469.40625000     469.25000000     469.09375000     469.00000000     468.87500000
         468.75000000     468.62500000     468.50000000     468.40625000     468.28125000     468.15625000     468.03125000     467.87500000     467.75000000     467.59375000     467.43750000     467.28125000     467.15625000     467.00000000     466.84375000     466.68750000     466.53125000     466.40625000     466.25000000     466.06250000
         465.90625000     465.71875000     465.53125000     465.34375000     465.18750000     465.03125000     464.84375000     464.65625000     464.50000000     464.31250000     464.12500000     463.96875000     463.81250000     463.65625000     463.50000000     463.34375000     463.18750000     463.00000000     462.87500000     462.75000000
         462.59375000     462.46875000     462.34375000     462.18750000     462.09375000     462.00000000     461.87500000     461.75000000     461.65625000     461.50000000     461.37500000     461.21875000     461.09375000     460.96875000     460.81250000     460.68750000     460.53125000     460.37500000     460.21875000     460.03125000
         459.87500000     459.71875000     459.56250000     459.34375000     459.18750000     459.00000000     458.81250000     458.65625000     458.46875000     458.28125000     458.12500000     457.93750000     457.75000000     457.56250000     457.37500000     457.18750000     457.03125000     456.84375000     456.65625000     456.46875000
         456.31250000     456.09375000     455.93750000     455.75000000     455.56250000     455.37500000     455.21875000     455.00000000     454.84375000     454.65625000     454.46875000     454.28125000     454.12500000     453.93750000     453.75000000     453.56250000     453.40625000     453.21875000     453.03125000     452.81250000
         452.87500000     453.15625000     453.31250000     453.50000000     453.68750000     453.87500000     454.03125000     454.21875000     454.40625000     454.59375000     454.78125000     454.93750000     455.12500000     455.31250000     455.50000000     455.68750000     455.84375000     456.03125000     456.21875000     456.40625000
         456.56250000     456.75000000     456.93750000     457.12500000     457.28125000     457.46875000     457.62500000     457.81250000     458.00000000     458.15625000     458.34375000     458.53125000     458.68750000     458.87500000     459.03125000     459.18750000     459.34375000     459.50000000     459.65625000     459.81250000
         459.93750000     460.09375000     460.21875000     460.37500000     460.50000000     460.65625000     460.75000000     460.87500000     460.96875000     461.06250000     461.18750000     461.31250000     461.46875000     461.59375000     461.71875000     461.87500000     462.00000000     462.15625000     462.31250000     462.50000000
         462.65625000     462.81250000     463.00000000     463.15625000     463.31250000     463.50000000     463.68750000     463.87500000     464.03125000     464.21875000     464.40625000     464.59375000     464.75000000     464.93750000     465.12500000     432.25000000     432.62500000     433.37500000     432.75000000     432.40625000
         433.18750000     433.93750000     434.68750000     466.71875000     466.87500000     467.03125000     467.18750000     467.34375000     467.50000000     436.46875000     467.81250000     467.96875000     468.09375000     468.25000000     468.40625000     468.53125000     468.68750000     468.84375000     468.96875000     469.09375000
         469.18750000     469.28125000     469.40625000     469.53125000     469.65625000     469.75000000     469.87500000     440.75000000     440.87500000     440.68750000     440.40625000     441.28125000     441.65625000     441.71875000     441.50000000     443.00000000     443.56250000     442.84375000     444.31250000     472.00000000
         443.78125000     444.09375000     444.37500000     444.65625000     444.93750000     445.21875000     445.50000000     445.78125000     446.09375000     446.37500000     446.65625000     446.93750000     447.21875000     447.50000000     447.53125000     447.81250000     448.09375000     448.40625000     448.68750000     448.96875000
         449.25000000     475.96875000     476.15625000     476.34375000     476.53125000     476.71875000     450.93750000     451.21875000     451.53125000     451.56250000     451.84375000     452.12500000     452.40625000     452.68750000     452.96875000     453.25000000     453.53125000     453.84375000     454.12500000     454.40625000
         454.68750000     454.96875000     455.25000000     455.28125000     455.56250000     455.84375000     456.12500000     456.43750000     456.71875000     457.00000000     457.28125000     457.56250000     457.84375000     458.12500000     458.40625000     458.68750000     458.96875000     459.25000000     459.31250000     459.59375000
         459.87500000     460.15625000     460.75000000     460.87500000     460.59375000     460.34375000     460.09375000     459.84375000     459.59375000     459.34375000     459.09375000     458.84375000     458.59375000     458.34375000     458.06250000     457.81250000     457.56250000     457.31250000     457.06250000     456.81250000
         456.56250000     456.31250000     456.06250000     455.81250000     455.31250000     455.06250000     454.81250000     454.56250000     454.31250000     454.06250000     453.81250000     453.56250000     453.31250000     453.06250000     452.81250000     452.56250000     452.06250000     451.81250000     451.56250000     451.31250000
         450.81250000     476.59375000     476.43750000     476.21875000     450.81250000     449.81250000     449.56250000     449.31250000     449.06250000     448.81250000     448.56250000     448.31250000     448.06250000     447.81250000     447.31250000     447.06250000     446.81250000     446.56250000     446.31250000     446.03125000
         445.78125000     445.53125000     445.28125000     445.03125000     444.78125000     444.53125000     444.28125000     444.09375000     444.21875000     444.00000000     442.75000000     443.34375000     443.68750000     442.03125000     442.78125000     441.62500000     442.12500000     442.53125000     441.78125000     440.93750000
         469.84375000     441.28125000     441.00000000     440.53125000     439.40625000     439.37500000     439.09375000     439.21875000     439.31250000     439.37500000     439.12500000     468.43750000     468.31250000     468.15625000     468.00000000     467.87500000     467.71875000     467.56250000     467.40625000     467.28125000
         467.12500000     466.96875000     435.37500000     434.40625000     466.46875000     433.46875000     433.68750000     433.87500000     465.75000000     465.56250000     465.37500000     465.18750000     465.00000000     432.28125000     431.50000000     430.71875000     430.21875000     464.09375000     429.37500000     428.59375000
         429.25000000     428.25000000     429.15625000     428.34375000     428.68750000     427.06250000     427.12500000     427.00000000     426.93750000     427.18750000     462.06250000     426.12500000     425.28125000     424.87500000     423.93750000     425.28125000     425.28125000     461.21875000     424.00000000     424.40625000
         424.25000000     460.68750000     460.53125000     460.40625000     460.25000000     460.09375000     459.93750000     459.78125000     459.62500000     459.46875000     459.31250000     459.12500000     421.90625000     421.34375000     420.50000000     420.78125000     458.25000000     458.06250000     457.90625000     419.68750000
         419.62500000     419.03125000     418.90625000     418.84375000     456.81250000     456.65625000     456.46875000     456.28125000     456.12500000     455.93750000     455.75000000     455.56250000     455.37500000     455.21875000     455.03125000     454.84375000     454.65625000     454.50000000     414.87500000     413.84375000
         413.84375000     413.56250000     413.31250000     413.28125000     413.03125000     412.75000000     412.75000000     412.09375000     412.25000000     412.78125000     413.06250000     413.56250000     413.84375000     414.37500000     414.62500000     414.90625000     415.31250000     415.50000000     415.90625000     416.09375000
         416.53125000     416.68750000     417.12500000     417.31250000     456.03125000     417.75000000     417.43750000     417.62500000     417.53125000     417.71875000     417.65625000     417.84375000     417.75000000     417.68750000     419.90625000     419.84375000     420.03125000     420.03125000     420.00000000     458.75000000
         458.93750000     421.93750000     459.28125000     422.25000000     423.15625000     422.62500000     423.21875000     423.62500000     424.15625000     460.34375000     423.78125000     424.34375000     424.65625000     424.43750000     424.68750000     425.06250000     426.21875000     426.12500000     426.00000000     426.78125000
         427.34375000     427.84375000     462.00000000     427.68750000     462.28125000     428.81250000     462.59375000     429.03125000     462.90625000     429.34375000     428.34375000     429.43750000     429.00000000     428.50000000     429.03125000     429.09375000     429.37500000     429.40625000     429.46875000     430.06250000
         432.06250000     432.40625000     465.37500000     465.81250000     466.15625000     466.56250000     466.96875000     467.40625000     467.68750000     468.03125000     468.34375000     468.65625000     468.93750000     469.28125000     469.56250000     469.78125000     470.00000000     470.21875000     470.43750000     470.71875000
         471.00000000     471.28125000     471.56250000     471.87500000     472.12500000     472.46875000     472.81250000     473.18750000     473.53125000     473.90625000     474.25000000     474.62500000     474.96875000     475.34375000     475.68750000     476.06250000     476.40625000     476.81250000     477.15625000     477.53125000
         477.87500000     478.25000000     478.59375000     478.96875000     479.31250000     479.68750000     480.03125000     480.40625000     480.75000000     481.15625000     481.50000000     481.87500000     482.21875000     482.59375000     482.93750000     483.37500000     483.43750000     483.03125000     482.65625000     482.31250000
         481.93750000     481.59375000     481.18750000     480.84375000     480.46875000     480.12500000     479.75000000     479.40625000     479.03125000     478.68750000     478.31250000     477.96875000     477.59375000     477.25000000     476.84375000     476.50000000     476.12500000     475.78125000     475.40625000     475.06250000
         474.68750000     474.34375000     473.96875000     473.59375000     473.21875000     472.87500000     472.50000000     472.15625000     471.68750000     471.31250000     470.93750000     470.59375000     470.21875000     469.90625000     469.59375000     469.28125000     468.93750000     468.68750000     468.43750000     468.21875000
         468.00000000     467.75000000     467.46875000     467.18750000     466.87500000     466.59375000     466.34375000     466.09375000     465.75000000     465.43750000     465.12500000     464.81250000     464.43750000     464.15625000     463.87500000     463.56250000     463.25000000     463.00000000     462.75000000     462.50000000
         462.28125000     462.09375000     461.81250000     461.53125000     461.25000000     460.96875000     460.62500000     460.28125000     459.93750000     459.59375000     459.15625000     458.81250000     458.43750000     458.09375000     457.68750000     457.34375000     456.93750000     456.59375000     456.18750000     455.84375000
         455.46875000     455.12500000     454.71875000     454.37500000     454.00000000     453.65625000     453.28125000     452.90625000     452.96875000     453.43750000     453.78125000     454.15625000     454.50000000     454.87500000     455.21875000     455.59375000     455.93750000     456.31250000     456.62500000     457.00000000
         457.34375000     457.68750000     458.00000000     458.37500000     458.68750000     458.96875000     459.25000000     459.56250000     459.81250000     460.09375000     460.34375000     460.56250000     460.75000000     461.00000000     461.28125000     461.59375000     461.87500000     462.28125000     462.59375000     462.93750000
         463.28125000     463.71875000     464.06250000     464.43750000     464.84375000     465.50000000     466.59375000     467.43750000     468.15625000     468.81250000     469.50000000     470.06250000     470.53125000     470.87500000     471.40625000     471.87500000     472.37500000     473.00000000     473.71875000     474.43750000
         475.15625000     475.87500000     476.59375000     477.34375000     478.06250000     478.78125000     479.50000000     480.21875000     480.96875000     481.68750000     482.40625000     483.15625000     483.00000000     482.12500000     481.37500000     480.65625000     479.93750000     479.21875000     478.50000000     477.75000000
         477.03125000     476.31250000     475.59375000     474.87500000     474.15625000     473.40625000     472.65625000     471.81250000     471.00000000     470.12500000     469.43750000     468.75000000     468.15625000     467.68750000     467.28125000     466.68750000     466.21875000     465.78125000     465.28125000     464.71875000
         464.21875000     463.68750000     463.21875000     462.75000000     462.37500000     461.84375000     461.09375000     460.37500000     459.53125000     458.78125000     458.00000000     457.18750000     456.40625000     455.65625000     454.90625000     454.18750000     453.31250000     453.18750000     453.96875000     454.68750000