# File generated by Flopy version 3.3.5 on 09/29/2022 at 14:14:56.
BEGIN options
  READASARRAYS
END options

BEGIN period  1
  ievt
    CONSTANT  2
  surface
    INTERNAL  FACTOR  1.0
        17.46093750      14.92968750      14.59375000      15.76562500      13.69531250      15.37500000      15.92187500      14.78906250      15.28125000      17.03906250      14.61718750      16.18750000      18.38281250      17.56250000      13.80468750      13.44531250      14.14062500      16.22656250      15.16406250      17.92187500
        19.25000000      14.75000000      17.24218750      14.06250000      17.21875000      17.14062500      16.51562500      19.07812500      13.36718750      18.25781250      14.41406250      12.29687500      10.53125000       8.99218750      17.27343750      13.25000000      17.45312500      17.65625000      16.93750000      17.44531250
        17.57812500      16.27343750      18.42968750      18.66406250      13.42968750      18.16406250      12.60937500      12.01562500      12.13281250      15.44531250      11.65625000      15.79687500      11.81250000      16.59375000      11.21875000      16.86718750      12.10156250      17.44531250      12.46875000      17.03906250
        12.33593750      17.66406250      17.31250000      12.04687500      11.93750000      12.53906250      13.35156250      13.67968750      13.64843750      12.53906250      14.74218750      11.70312500      16.72656250      11.97656250      18.02343750      12.30468750      16.82031250      16.82031250      11.71093750      17.62500000
        11.58593750      11.96093750      12.92187500      11.64062500      13.25000000      12.89843750      13.64843750      13.17187500      14.20312500      12.12500000      15.17968750      11.86718750      15.92968750      12.28125000      16.53906250      17.99218750      12.41406250      17.52343750      10.92968750       4.93750000
        12.19531250      11.74218750      13.64843750      11.46093750      13.52343750      12.20312500      14.27343750      12.81250000      15.61718750      13.44531250      15.82812500      13.44531250      16.64843750      11.07031250      16.55468750      12.82812500      17.54687500      13.44531250      17.67968750      10.35156250
        10.17187500      11.30468750      13.17187500      11.17187500      14.08593750      11.46093750      14.17187500      11.58593750      14.39843750      12.03125000      14.94531250      11.47656250      15.46875000      10.16406250      15.89843750      11.99218750      16.85937500      17.28906250      11.34375000      19.03906250
         6.68750000       9.53125000       6.50781250       7.42968750      14.51562500       7.85937500      14.35156250      10.76562500      10.46093750      14.66406250      10.17968750      14.10156250      10.33593750      15.06250000      11.32812500      15.30468750      12.10937500      16.07031250      11.71093750      16.17968750
        12.78125000      17.69531250      19.43750000      11.90625000      18.70312500       4.25000000      11.06250000       5.64062500      14.50781250       6.07031250      13.37500000       5.89062500      13.26562500       8.71093750      13.25000000       9.53906250      13.42187500       9.24218750      16.62500000       9.40625000
        16.82812500      10.76562500      17.66406250      11.21875000      16.21875000      10.34375000      15.99218750      11.28906250      16.06250000      12.21875000      17.33593750      10.64843750      16.64843750       4.61718750       5.28906250       3.86718750      12.51562500       3.53906250      12.79687500       6.25000000
        12.82812500       7.74218750      13.60937500       9.18750000      13.46093750       9.39843750      14.89062500       8.42187500      14.43750000       8.95312500      15.03906250       9.88281250      15.60937500      10.02343750      15.30468750      10.92187500      16.66406250      10.65625000      15.57031250      10.34375000
        15.82812500      11.66406250      15.71093750       2.18750000       4.66406250       5.37500000      10.70312500       6.01562500      12.39062500       6.78125000      12.42968750       8.30468750      13.53125000       8.28906250      13.35156250       7.86718750      14.15625000       7.85156250      14.26562500       8.23437500
        14.45312500       9.49218750      15.46875000      10.55468750      14.98437500      10.92968750      15.14843750      11.34375000      15.20312500      15.46875000       9.92187500      15.50000000       5.16406250       3.88281250      10.72656250       5.94531250      10.60937500       6.66406250      12.50781250       8.21093750
        12.34375000       8.22656250      14.03906250       8.54687500      12.91406250       7.42187500      13.32031250       7.53125000      13.95312500       9.26562500      14.88281250       8.10937500      14.84375000      10.53906250      14.39062500       9.39062500      15.36718750      11.10156250      15.17187500      15.69531250
        10.92187500      15.42187500       2.85937500       4.76562500       2.91406250       9.51562500       5.85156250      10.81250000       6.53906250      11.58593750       8.35937500      12.75781250       8.35937500      12.92968750       7.49218750      14.37500000       7.69531250      13.43750000       7.35937500      13.85937500
         7.80468750      15.07031250       7.69531250      14.53125000       8.03125000      14.56250000       9.52343750      14.53125000      10.36718750      15.00000000      15.23437500      10.54687500      15.75781250      -0.46093750       1.00000000       9.31250000       4.15625000      11.74218750       4.69531250      12.00000000
         6.10156250      12.14843750       7.03125000      12.11718750       7.71093750      12.90625000       7.38281250      14.07031250       7.18750000      14.41406250       6.82031250      13.63281250       5.20312500      15.45312500       7.32812500      15.61718750       7.65625000      15.14062500       8.11718750      15.36718750
        10.09375000      16.19531250       9.03906250      17.62500000       8.03125000      17.33593750       2.67187500       5.77343750       1.56250000       5.50000000       6.27343750      10.20312500       5.35937500      11.91406250       6.11718750      11.89843750       7.04687500      12.75000000       6.84375000      13.34375000
         6.78125000      14.07812500       6.67968750      13.85937500       5.82812500      14.34375000       3.85156250      13.73437500       6.10156250      15.73437500       7.03906250      13.89062500       7.86718750      15.28125000       8.47656250      16.28906250      17.89843750       7.68750000      17.89062500       6.85937500
         3.65625000       7.40625000       0.88281250      11.73437500       1.00000000      11.61718750       0.75781250      11.79687500       5.78125000      13.00000000       5.53906250      14.31250000       5.60156250      14.57031250       5.10937500      14.14843750       6.68750000      13.59375000       5.82812500      13.30468750
         5.92968750      14.12500000       0.61718750      13.75781250       0.80468750      14.43750000       7.41406250      15.64843750       4.75781250      16.07812500       9.32812500      16.10937500       7.67187500      16.71093750       1.85156250       3.28906250       4.32031250      10.56250000       2.67968750      11.01562500
         1.38281250      12.56250000       1.29687500      12.21093750       1.77343750      13.03906250       6.51562500      13.78125000       4.41406250      14.15625000       4.87500000      13.39843750       6.85156250      14.71875000       5.20312500      13.47656250       0.60156250      13.42968750       2.65625000      13.00000000
         6.96875000      15.37500000       5.91406250      15.23437500       5.64062500      15.40625000       8.67968750      15.78906250      16.60156250       2.38281250       2.87500000       2.13281250       9.02343750       6.96093750       9.96093750       3.31250000      10.88281250       2.84375000      11.75781250       3.21875000
        12.80468750      -0.49218750      12.75781250       1.30468750      13.53125000       0.72656250      13.83593750       1.03125000      14.37500000       3.79687500      14.32812500       0.53906250      12.96875000       4.45312500      12.07031250       7.33593750      13.05468750       8.39062500      13.45312500       8.27343750
        14.81250000      14.98437500       9.17968750      14.64843750       1.28906250      -0.55468750       7.77343750       1.21875000      10.07031250       0.32812500      10.27343750       4.79687500      10.90625000       4.64843750      11.53906250       5.64062500      12.21875000       4.42968750      13.33593750       6.11718750
        14.00781250       3.40625000      13.07812500       5.50781250      13.51562500       1.10937500      12.01562500       6.35156250      12.60156250       7.06250000      12.64843750       6.62500000      12.10156250       8.13281250      13.14062500       8.71093750      13.67968750       9.54687500      14.56250000       9.07031250
        14.78906250      -0.03125000       3.26562500      -0.55468750       9.15625000       2.19531250       9.95312500       5.59375000      11.07812500       6.25000000      11.31250000       5.71093750      12.79687500       5.50781250      12.15625000       4.07812500      13.00000000       6.67187500      13.43750000       6.68750000
        13.25781250       7.75000000      13.28906250       7.46093750      13.92968750       7.21093750      11.87500000       7.29687500      12.05468750       6.03906250      11.71093750       8.80468750      11.58593750       8.98437500      12.92968750      14.24218750       8.49218750      13.11718750       1.15625000      -0.46093750
         9.32812500      -0.55468750       9.54687500       1.58593750      10.76562500       4.42968750      10.95312500       6.82812500      11.03906250       5.90625000      11.75000000       5.72656250      12.71875000       5.20312500      12.53906250       7.45312500      13.21875000       7.53906250      12.89062500       8.09375000
        13.67187500       7.72656250      12.45312500       7.33593750      12.25781250       7.58593750      13.13281250       5.21875000      11.96875000       7.99218750      10.89843750       9.77343750      12.73437500      13.17968750       7.82812500      13.56250000      -0.46093750      -0.46093750       9.60156250       4.54687500
        10.62500000      -0.42968750      10.26562500       1.00781250      11.07812500       2.45312500      11.57812500       6.61718750      11.56250000       4.92187500      12.10937500       6.72656250      12.70312500       6.51562500      13.09375000       7.07031250      13.95312500       7.92187500      13.21875000       7.57812500
        13.56250000       8.31250000      13.20312500       7.81250000      13.71875000       9.30468750      13.44531250       8.54687500      12.37500000       7.89062500      10.38281250       9.53125000      11.96093750       8.35156250      11.79687500       1.43750000       2.87500000       9.41406250       5.28125000      11.01562500
        -0.49218750      11.51562500       1.71875000      12.50000000      -0.38281250      12.49218750       4.74218750      13.05468750       5.85156250      13.88281250       6.71093750      14.06250000       6.88281250      13.85156250       7.85937500      15.00000000       9.19531250      12.49218750       7.96875000      12.68750000
         8.95312500      13.20312500       9.19531250      12.54687500       8.76562500      11.82031250       8.94531250      12.04687500       7.68750000      11.59375000       9.35937500      11.54687500       9.79687500      11.63281250       1.50000000       1.90625000      11.00781250       3.32031250      11.58593750       3.60156250
        11.84375000       1.13281250      12.60156250       1.53906250      11.90625000       2.37500000      13.61718750       5.24218750      13.49218750       5.52343750      14.16406250       5.92187500      13.69531250       6.77343750      14.39843750       7.21875000      13.37500000       6.86718750      13.31250000       9.31250000
        12.86718750       8.65625000      12.52343750       9.79687500      13.00781250       9.70312500      11.57031250      10.56250000      11.72656250      10.15625000      11.79687500      12.27343750      11.88281250       6.50000000       1.78125000       3.36718750      11.74218750       2.98437500      11.94531250       3.32031250
        13.07031250       3.21093750      12.72656250      -0.42968750      12.95312500       1.10937500      13.42968750       4.08593750      14.06250000       1.04687500      14.55468750       4.60937500      13.82031250       6.00000000      12.35937500       5.87500000      12.15625000       7.73437500      13.79687500       8.35156250
        13.24218750       8.66406250      12.32812500       8.23437500      10.21875000       9.62500000       9.56250000      10.81250000       8.67187500      10.71093750      10.74218750      12.00781250       1.32812500       1.15625000      13.19531250       2.53906250      11.63281250       3.44531250      11.86718750       2.60156250
        12.16406250       2.48437500      13.13281250       0.46875000      13.69531250       0.79687500      13.25781250       1.45312500      13.07031250       0.96093750      13.30468750       0.89843750      14.41406250       4.46875000      12.28906250       4.85937500      12.54687500       7.71093750      12.17187500       5.87500000
        13.15625000       6.76562500      12.37500000       7.75000000      11.53125000       8.35156250      12.05468750       9.21093750       7.68750000      11.70312500      10.52343750       8.91406250      11.68750000       2.85156250      -3.01562500       4.10937500      10.68750000       2.14062500      10.54687500       2.35156250
        11.10156250       2.81250000      11.57031250       3.00000000      12.01562500       2.75000000      12.75781250      -0.42968750      12.32031250       0.40625000      12.47656250       2.21875000      13.32031250       5.62500000      12.85937500       1.74218750      12.41406250       3.76562500      12.54687500       4.63281250
         9.54687500       3.33593750      12.46093750       6.40625000      12.49218750       6.49218750      10.20312500       7.03125000       9.67968750       8.52343750       7.18750000      10.14062500      10.78125000       8.24218750       9.50000000       4.34375000       0.99218750       5.12500000      10.60156250       2.06250000
         9.59375000       2.39062500       8.73437500       2.19531250       9.25000000       2.00781250       9.50000000       2.81250000      11.23437500       1.67968750      12.91406250       1.32031250      11.37500000       2.53125000      12.88281250       5.25781250      13.76562500       4.57031250      11.95312500       4.44531250
         8.53906250       5.42968750      10.44531250       1.84375000      10.89062500       2.67187500      10.27343750       6.17187500       9.39843750       5.30468750       8.18750000       7.83593750       3.15625000       9.50000000       9.14843750       7.58593750       9.81250000      -0.49218750       3.46875000       3.86718750
         9.68750000       3.55468750       9.33593750       1.92968750       8.37500000       0.73437500       8.24218750       2.78125000       9.34375000       3.59375000      10.18750000       1.30468750      11.03906250       0.85937500      12.25781250       0.41406250      12.90625000       3.50781250      11.64843750       0.06250000
        11.39843750       0.46875000      10.18750000       2.26562500       9.89843750       2.39843750      12.57812500       5.12500000       8.76562500       6.78125000       5.14062500       6.99218750       4.95312500       7.53906250       3.87500000       7.81250000       4.88281250       8.66406250      11.55468750       2.81250000
        -0.49218750       2.26562500       9.24218750       2.38281250       9.97656250      -0.49218750       8.41406250       3.79687500       6.75781250       3.09375000       8.60156250       3.39062500      10.00781250       0.93750000      11.22656250       0.61718750      11.78906250       1.21875000      12.25000000       1.05468750
        11.90625000       0.77343750       9.39062500       6.13281250      13.17187500       5.09375000       6.62500000       4.65625000       2.02343750       6.25000000       2.56250000       6.84375000       6.61718750       7.19531250       9.29687500       8.28906250       9.25000000      12.15625000       8.36718750      12.17968750
        18.48437500       0.83593750      -0.41406250      10.19531250       2.82031250      10.38281250       2.66406250       9.28125000       2.60937500       5.23437500       3.46093750       9.57031250       4.46093750      10.39843750       4.84375000      11.54687500       1.04687500      11.21875000       0.64062500      11.96875000
         1.31250000      12.28906250       1.07031250       1.77343750       6.89062500       2.39843750       4.71875000       0.67187500       6.19531250       6.73437500       6.62500000       6.51562500       6.93750000       9.78906250       7.00000000      11.98437500       8.02343750      10.86718750       6.15625000      13.24218750
        14.00781250       1.07031250       1.68750000       0.96875000       8.46093750       1.54687500       9.64843750       2.67968750       7.75000000       3.25000000       7.75000000       2.51562500      10.12500000       1.59375000      10.09375000       2.42968750      12.14062500      -0.35937500       9.22656250       0.61718750
        11.75781250       6.92187500       4.76562500       7.02343750       5.30468750       6.89843750      11.10156250       5.66406250      12.60156250       6.50000000      13.39062500       6.26562500      12.88281250       6.45312500      13.38281250       7.68750000      14.19531250      13.85937500       4.78125000      15.93750000
        -0.49218750       0.29687500      10.10937500      -0.49218750       8.95312500       1.80468750       8.48437500       3.84375000       5.05468750       3.50000000       4.84375000       2.18750000       4.62500000       0.92968750       4.49218750      -0.28906250      11.58593750       4.33593750       2.31250000       6.26562500
         4.62500000       7.17968750      10.13281250       6.53906250      10.21093750       3.05468750      10.68750000       5.71875000      10.66406250       6.32031250      12.19531250       6.67968750      12.71875000       6.79687500      12.26562500      12.85937500       0.98437500      14.33593750      -0.49218750      -0.35937500
         9.16406250       0.94531250       9.35937500       3.27343750       8.80468750       3.10937500       0.78906250       2.05468750       5.17187500       4.17968750       1.11718750       4.29687500       1.07812500       0.83593750       3.76562500       0.86718750       3.51562500      -0.35937500       9.18750000       6.37500000
        12.21093750       4.84375000      11.42187500       0.10937500      11.32812500       5.04687500      12.07812500       6.66406250      11.86718750       7.06250000      10.47656250       3.12500000      12.77343750      15.62500000       0.82812500      16.03906250       1.30468750       1.28125000       1.75781250       0.44531250
         5.98437500       3.15625000       1.18750000       3.71875000       0.17187500       3.99218750       9.74218750       4.15625000       9.89062500       4.87500000       8.47656250       0.75781250       2.02343750       1.28906250       8.87500000       1.20312500      10.95312500       0.39843750      11.78125000       1.53906250
        11.99218750       0.89062500      12.72656250       6.41406250      14.12500000       4.88281250      15.43750000       1.92187500      16.18750000       0.98437500      16.98437500      15.98437500       8.08593750      16.38281250      -0.49218750      -0.35937500       3.04687500       1.22656250       3.21875000       1.58593750
         2.62500000       1.66406250       2.09375000       3.07812500       4.05468750       6.06250000       6.09375000       7.51562500       7.00000000       9.77343750       6.96093750      10.60156250       1.88281250      11.74218750       3.38281250      11.82812500       1.57031250      12.41406250      -0.32812500      13.71875000
        -0.33593750      14.50781250       0.79687500      14.90625000       0.95312500      15.15625000       4.75781250      16.96093750      15.50000000       7.29687500      17.61718750       1.35156250      -0.49218750       5.07031250       3.50781250       1.87500000       4.06250000       4.21093750       2.98437500       9.35156250
         2.07812500       9.13281250       5.65625000       8.22656250       5.92968750       7.15625000       6.44531250      10.78906250       6.57812500      11.79687500       6.84375000      12.52343750       6.41406250      12.95312500       4.64843750      12.83593750       1.46875000      15.50781250       5.60156250      14.10937500
         5.74218750      14.57031250       7.17187500      14.25000000       8.00781250      14.56250000      17.71093750       8.00781250      16.71875000      -0.49218750       8.22656250       1.59375000       8.46093750       1.38281250       8.53906250       0.85156250       8.52343750       4.73437500       9.78125000       4.74218750
         9.46875000       6.06250000       9.32812500       6.14843750       9.96875000       6.46093750      12.03906250       6.22656250      12.51562500       4.78906250      13.47656250       7.49218750      13.07031250       6.01562500      14.00781250       7.73437500      13.82812500       7.74218750      13.97656250       7.71875000
        14.21093750       8.12500000      15.39062500      14.78906250       7.68750000      13.75781250       1.03125000       0.60937500       8.00000000       0.73437500       7.59375000       2.31250000       8.46093750       0.82812500       9.12500000       2.96875000       9.59375000       4.33593750       9.46093750       5.13281250
        10.27343750       5.52343750      10.39062500       6.73437500      11.33593750       6.65625000      11.99218750       7.10156250      13.14062500       7.53125000      14.08593750       7.92187500      13.65625000       7.98437500      14.91406250       7.96093750      14.71875000       8.06250000      14.84375000       5.05468750
        14.39062500      16.62500000       7.09375000      19.35937500       0.70312500       1.82031250       8.60156250       0.89062500       8.97656250       1.25781250       9.00781250       2.88281250       9.40625000       4.71875000       9.63281250       5.25000000      10.62500000       5.27343750      10.41406250       5.59375000
        10.65625000       5.80468750      11.67968750       5.81250000      12.22656250       6.95312500      13.50781250       7.81250000      14.14843750       8.06250000      15.03906250       8.19531250       8.74218750       8.33593750      13.83593750       8.04687500      14.95312500       8.41406250      15.48437500      16.09375000
         7.60937500      17.92968750       2.03906250      -0.49218750       9.05468750       0.58593750       9.89062500       4.69531250      10.17187500       4.36718750       9.75781250       4.39843750      10.57812500       3.84375000      10.11718750       4.28906250       8.39843750       5.14843750      11.19531250       6.66406250
        11.90625000       5.92187500      11.31250000       6.41406250      14.51562500       6.99218750      14.39843750       7.60156250      13.02343750       7.89843750      15.21093750       7.75000000      14.85937500       8.40625000      15.77343750       8.29687500      14.64843750      18.35156250       8.20312500       8.14062500
         4.31250000       1.68750000      -0.49218750       2.26562500      10.61718750       5.27343750      10.55468750       5.15625000      10.89062500       3.85156250      11.35156250       2.79687500      11.10156250       4.55468750       9.92187500       5.77343750      11.00000000       5.30468750      10.48437500       6.37500000
        11.72656250       5.89843750      12.32031250       5.25000000      13.47656250       5.00000000      14.90625000       7.75781250      16.00000000       8.00000000      14.92968750       9.10156250      14.92187500      10.06250000      13.19531250       9.22656250      13.81250000       9.77343750      17.60156250      -0.46093750
         2.22656250      10.50781250       3.98437500      11.25000000       3.87500000      11.67968750       0.21093750      11.95312500       2.98437500      11.71093750       3.03906250      11.60156250       2.90625000      12.42968750       3.53125000      13.24218750       4.54687500      10.95312500       4.12500000      13.09375000
         4.53125000      13.52343750       5.14062500      13.92968750       6.37500000      14.82031250       6.75781250      15.03906250       8.57812500      14.28906250      10.25000000      13.82812500      10.99218750      13.29687500       9.40625000      17.29687500       1.46875000       0.84375000      10.20312500       3.23437500
        10.92187500       4.46093750      11.09375000       0.68750000      12.50000000       3.95312500      13.35937500       2.95312500      11.61718750       3.05468750      12.75000000       3.44531250      13.78906250       3.62500000      14.65625000       4.54687500      11.44531250       5.82031250      14.23437500       5.68750000
        14.08593750       6.25000000      13.88281250       6.52343750      14.62500000       7.86718750      12.39062500       9.51562500      12.39062500      10.03906250      13.77343750       9.91406250      17.02343750       1.29687500      -0.49218750      -0.42968750      11.64843750      -0.46093750      10.84375000       2.00781250
        11.70312500       4.18750000      12.46093750       3.46093750      13.10156250       3.70312500      11.74218750       4.67968750       7.53125000       4.53906250      13.52343750       4.24218750      15.92968750       4.75781250      13.64062500       4.25781250      12.84375000       5.84375000      13.33593750       5.50781250
        14.42187500       7.15625000      12.64062500       8.29687500      10.89062500       9.22656250      11.51562500      13.69531250      11.58593750      15.65625000       0.09375000      -0.46093750       9.79687500       2.76562500      10.46093750       2.16406250       3.26562500      10.24218750       3.23437500      11.88281250
         3.79687500      12.48437500       1.20312500      10.10156250       1.61718750      12.64062500       3.92968750      12.89843750       4.50781250      13.00000000       4.32031250      12.69531250       1.10156250      12.77343750       3.97656250      12.40625000       2.25781250      12.32031250       3.55468750       5.25000000
        11.11718750       4.38281250      10.54687500       6.00781250      11.00781250       6.61718750      14.92187500      12.78906250       0.20312500       1.32031250       8.56250000      -0.46093750       1.08593750       8.60937500       9.03125000       2.48437500       0.00781250       1.53906250       1.18750000      10.14062500
         1.21093750       1.94531250      -0.46093750       1.89062500      -0.46093750       1.00781250       3.58593750      10.35156250       2.85156250      12.35156250       2.03906250       9.93750000       4.47656250       1.53125000      10.94531250      -0.46093750      11.74218750       4.59375000      12.60937500       4.98437500
         7.49218750      11.64843750       1.85156250      11.77343750      12.16406250       3.28125000      13.43750000       5.34375000      12.71875000       5.77343750       6.00781250      10.42968750       6.03906250      10.35156250       7.85937500      11.16406250      -0.46093750       6.57812500       1.20312500      11.70312500
        12.67187500      -0.46093750       2.00000000      -0.43750000       0.94531250       0.60156250      -0.46093750      -0.46093750      -0.39062500      -0.46093750      -0.46093750       1.07031250       1.06250000       7.27343750      -0.46093750      -0.46093750      -0.46093750      -0.42968750      -0.46093750      -0.46093750
         2.99218750       8.07812500       1.54687500      -0.46093750      -0.41406250      -0.46093750       4.54687500       5.29687500       1.85156250      -0.44531250      -0.46093750      -0.46093750      -0.46093750      -0.46093750      -0.46093750      -0.46093750      -0.46093750       9.65625000      -0.46093750      10.44531250
        -0.46093750       0.36718750      -0.46093750      -0.46093750      -0.46093750      -0.46093750      -0.46093750      -0.46093750       1.31250000       2.11718750       0.18750000       1.54687500      -0.26562500       1.80468750      -0.46093750      -0.46093750      -0.46093750       0.53125000       3.00000000       0.13281250
        -0.46093750       0.66406250      -0.46093750      -0.46093750      -0.46093750      -0.46093750       1.29687500      -0.04687500       2.08593750       1.31250000       2.26562500      -0.46093750      11.50000000      -0.42187500       3.10937500       1.93750000      -0.46093750       2.74218750      -0.46093750      -0.46093750
        -0.46093750      12.35937500      -0.12500000       0.97656250      -0.46093750       2.62500000       1.31250000      -0.46093750      -0.46093750      -0.46093750      -0.46093750       0.88281250      -0.46093750      -0.46093750       1.78125000       1.95312500      -0.32812500      -0.46093750      11.71875000       1.86718750