# File generated by Flopy version 3.3.5 on 10/13/2022 at 08:50:00.
BEGIN options
  COMPLEXITY  simple
END options

BEGIN linear
  LINEAR_ACCELERATION  bicgstab
END linear

