# File generated by Flopy version 3.3.5 on 10/13/2022 at 08:50:01.
BEGIN options
END options

BEGIN dimensions
  MAXBOUND  1001
END dimensions

BEGIN period  1
  1 131     472.00671387       0.01000000     460.00000000
  1 132     435.79061890       0.01000000     412.00000000
  1 133     435.54913330       0.01000000     411.34375000
  1 134     435.31958008       0.01000000     410.71875000
  1 135     435.09991455       0.01000000     410.09375000
  1 136     434.89129639       0.01000000     409.68750000
  1 137     434.67010498       0.01000000     409.31250000
  1 138     434.45602417       0.01000000     409.21875000
  1 139     434.24368286       0.01000000     409.09375000
  1 140     434.01855469       0.01000000     408.96875000
  1 141     433.80783081       0.01000000     408.62500000
  1 142     433.58657837       0.01000000     408.50000000
  1 143     433.37927246       0.01000000     408.40625000
  1 144     433.16308594       0.01000000     408.28125000
  1 145     432.93823242       0.01000000     407.90625000
  1 146     479.72900391       0.01000000     449.46875000
  1 147     479.55053711       0.01000000     449.18750000
  1 148     479.33386230       0.01000000     448.90625000
  1 149     479.12054443       0.01000000     448.62500000
  1 150     478.90826416       0.01000000     448.37500000
  1 151     478.70034790       0.01000000     448.09375000
  1 152     478.48995972       0.01000000     447.84375000
  1 153     478.28091431       0.01000000     447.56250000
  1 154     478.07623291       0.01000000     447.28125000
  1 155     477.86929321       0.01000000     447.03125000
  1 156     477.66403198       0.01000000     446.75000000
  1 157     477.46343994       0.01000000     446.50000000
  1 158     477.26116943       0.01000000     446.21875000
  1 159     477.06420898       0.01000000     445.96875000
  1 160     476.86526489       0.01000000     445.68750000
  1 161     476.66760254       0.01000000     445.40625000
  1 162     476.47161865       0.01000000     445.15625000
  1 163     476.27999878       0.01000000     444.87500000
  1 164     476.08697510       0.01000000     444.62500000
  1 165     475.89804077       0.01000000     444.34375000
  1 166     475.71258545       0.01000000     444.09375000
  1 167     475.52420044       0.01000000     443.81250000
  1 168     475.34097290       0.01000000     443.53125000
  1 169     475.15600586       0.01000000     443.28125000
  1 170     474.97332764       0.01000000     443.00000000
  1 171     474.79525757       0.01000000     442.75000000
  1 172     474.61578369       0.01000000     442.46875000
  1 173     474.44134521       0.01000000     442.21875000
  1 174     474.26544189       0.01000000     441.93750000
  1 175     474.09432983       0.01000000     441.65625000
  1 176     473.92187500       0.01000000     441.40625000
  1 177     473.75274658       0.01000000     441.12500000
  1 178     473.59289551       0.01000000     440.87500000
  1 179     473.43127441       0.01000000     440.59375000
  1 180     473.26602173       0.01000000     440.34375000
  1 181     473.10229492       0.01000000     440.06250000
  1 182     472.92520142       0.01000000     439.75000000
  1 183     466.53799438       0.01000000     438.18750000
  1 184     466.27911377       0.01000000     437.90625000
  1 185     466.01501465       0.01000000     437.65625000
  1 186     465.74822998       0.01000000     437.37500000
  1 187     465.47604370       0.01000000     437.12500000
  1 188     465.20822144       0.01000000     436.84375000
  1 189     464.94137573       0.01000000     436.59375000
  1 190     464.66812134       0.01000000     436.31250000
  1 191     464.39831543       0.01000000     436.03125000
  1 192     464.12976074       0.01000000     435.78125000
  1 193     463.86154175       0.01000000     435.50000000
  1 194     463.58801270       0.01000000     435.25000000
  1 195     463.31896973       0.01000000     434.96875000
  1 196     463.05126953       0.01000000     434.71875000
  1 197     462.77752686       0.01000000     434.43750000
  1 198     462.50259399       0.01000000     434.15625000
  1 199     462.23278809       0.01000000     433.90625000
  1 200     461.96469116       0.01000000     433.62500000
  1 201     461.69125366       0.01000000     433.37500000
  1 202     461.41796875       0.01000000     433.09375000
  1 203     461.15472412       0.01000000     432.84375000
  1 204     460.89672852       0.01000000     432.56250000
  1 205     460.66418457       0.01000000     432.40625000
  1 206     460.44842529       0.01000000     434.81250000
  1 207     437.65814209       0.01000000     413.18750000
  1 208     437.41778564       0.01000000     411.46875000
  1 209     437.18481445       0.01000000     409.87500000
  1 210     436.95535278       0.01000000     408.28125000
  1 211     436.72540283       0.01000000     407.40625000
  1 212     436.48187256       0.01000000     407.12500000
  1 213     436.24194336       0.01000000     406.87500000
  1 214     436.01135254       0.01000000     406.59375000
  1 215     435.78482056       0.01000000     406.34375000
  1 216     435.55862427       0.01000000     406.06250000
  1 217     435.33081055       0.01000000     405.81250000
  1 218     435.10650635       0.01000000     405.53125000
  1 219     434.88616943       0.01000000     405.28125000
  1 220     434.66577148       0.01000000     405.00000000
  1 221     434.44830322       0.01000000     404.75000000
  1 222     434.23168945       0.01000000     404.46875000
  1 223     434.01232910       0.01000000     404.21875000
  1 224     433.79772949       0.01000000     403.93750000
  1 225     433.58132935       0.01000000     403.65625000
  1 226     433.36920166       0.01000000     403.40625000
  1 227     433.15478516       0.01000000     403.12500000
  1 228     432.93896484       0.01000000     402.87500000
  1 229     432.75115967       0.01000000     402.59375000
  1 230     432.53778076       0.01000000     402.34375000
  1 231     432.32293701       0.01000000     402.06250000
  1 232     432.10919189       0.01000000     401.81250000
  1 233     431.89022827       0.01000000     401.53125000
  1 234     431.67962646       0.01000000     401.25000000
  1 235     431.47238159       0.01000000     401.00000000
  1 236     431.26025391       0.01000000     400.71875000
  1 237     431.04226685       0.01000000     400.43750000
  1 238     479.73065186       0.01000000     449.46875000
  1 239     479.55303955       0.01000000     449.15625000
  1 240     479.33334351       0.01000000     448.90625000
  1 241     479.12048340       0.01000000     448.62500000
  1 242     478.90856934       0.01000000     448.37500000
  1 243     478.69900513       0.01000000     448.09375000
  1 244     478.48974609       0.01000000     447.84375000
  1 245     478.28118896       0.01000000     447.56250000
  1 246     478.07482910       0.01000000     447.28125000
  1 247     477.86886597       0.01000000     447.03125000
  1 248     477.66418457       0.01000000     446.75000000
  1 249     477.46212769       0.01000000     446.50000000
  1 250     477.26086426       0.01000000     446.21875000
  1 251     477.06259155       0.01000000     445.96875000
  1 252     476.86465454       0.01000000     445.68750000
  1 253     476.66754150       0.01000000     445.40625000
  1 254     476.47192383       0.01000000     445.15625000
  1 255     476.27886963       0.01000000     444.87500000
  1 256     476.08691406       0.01000000     444.62500000
  1 257     475.89797974       0.01000000     444.34375000
  1 258     475.71099854       0.01000000     444.09375000
  1 259     475.52404785       0.01000000     443.81250000
  1 260     475.33935547       0.01000000     443.53125000
  1 261     475.15539551       0.01000000     443.28125000
  1 262     474.97344971       0.01000000     443.00000000
  1 263     474.79418945       0.01000000     442.75000000
  1 264     474.61572266       0.01000000     442.46875000
  1 265     474.44006348       0.01000000     442.21875000
  1 266     474.26544189       0.01000000     441.93750000
  1 267     474.09332275       0.01000000     441.65625000
  1 268     473.92230225       0.01000000     441.40625000
  1 269     473.75299072       0.01000000     441.12500000
  1 270     473.58602905       0.01000000     440.87500000
  1 271     473.42047119       0.01000000     440.59375000
  1 272     473.25595093       0.01000000     440.34375000
  1 273     473.09411621       0.01000000     440.06250000
  1 274     472.92050171       0.01000000     439.75000000
  1 275     466.52874756       0.01000000     438.18750000
  1 276     466.26510620       0.01000000     437.90625000
  1 277     466.00018311       0.01000000     437.65625000
  1 278     465.73217773       0.01000000     437.37500000
  1 279     465.46249390       0.01000000     437.12500000
  1 280     465.19464111       0.01000000     436.84375000
  1 281     464.92608643       0.01000000     436.59375000
  1 282     464.65502930       0.01000000     436.31250000
  1 283     464.38458252       0.01000000     436.03125000
  1 284     464.11499023       0.01000000     435.78125000
  1 285     463.84533691       0.01000000     435.50000000
  1 286     463.57455444       0.01000000     435.25000000
  1 287     463.30493164       0.01000000     434.96875000
  1 288     463.03509521       0.01000000     434.71875000
  1 289     462.76254272       0.01000000     434.43750000
  1 290     462.48974609       0.01000000     434.15625000
  1 291     462.21859741       0.01000000     433.90625000
  1 292     461.94808960       0.01000000     433.62500000
  1 293     461.67535400       0.01000000     433.37500000
  1 294     461.40283203       0.01000000     433.09375000
  1 295     461.13421631       0.01000000     432.84375000
  1 296     460.87091064       0.01000000     432.56250000
  1 297     460.62332153       0.01000000     432.31250000
  1 298     460.38388062       0.01000000     432.06250000
  1 299     460.16046143       0.01000000     431.81250000
  1 300     459.91043091       0.01000000     432.25000000
  1 301     459.65240479       0.01000000     434.81250000
  1 302     438.83346558       0.01000000     413.78125000
  1 303     438.62478638       0.01000000     412.28125000
  1 304     438.39947510       0.01000000     410.71875000
  1 305     438.16394043       0.01000000     409.12500000
  1 306     437.92321777       0.01000000     408.71875000
  1 307     437.68389893       0.01000000     408.46875000
  1 308     437.45114136       0.01000000     408.21875000
  1 309     437.21606445       0.01000000     407.93750000
  1 310     436.98223877       0.01000000     407.68750000
  1 311     436.74493408       0.01000000     407.40625000
  1 312     436.50320435       0.01000000     407.15625000
  1 313     436.26303101       0.01000000     406.87500000
  1 314     436.02847290       0.01000000     406.62500000
  1 315     435.80044556       0.01000000     406.34375000
  1 316     435.57156372       0.01000000     406.09375000
  1 317     435.34201050       0.01000000     405.81250000
  1 318     435.11590576       0.01000000     405.53125000
  1 319     434.88992310       0.01000000     405.28125000
  1 320     434.66613770       0.01000000     405.00000000
  1 321     434.44604492       0.01000000     404.75000000
  1 322     434.22753906       0.01000000     404.46875000
  1 323     434.00918579       0.01000000     404.21875000
  1 324     433.79376221       0.01000000     403.93750000
  1 325     433.57873535       0.01000000     403.65625000
  1 326     433.36499023       0.01000000     403.40625000
  1 327     433.15075684       0.01000000     403.12500000
  1 328     432.93685913       0.01000000     402.87500000
  1 329     432.72805786       0.01000000     402.59375000
  1 330     432.51593018       0.01000000     402.31250000
  1 331     432.30184937       0.01000000     402.06250000
  1 332     432.08779907       0.01000000     401.78125000
  1 333     431.87301636       0.01000000     401.53125000
  1 334     431.66152954       0.01000000     401.25000000
  1 335     431.45184326       0.01000000     401.00000000
  1 336     431.24285889       0.01000000     400.71875000
  1 337     431.03860474       0.01000000     400.43750000
  1 338     479.73083496       0.01000000     449.46875000
  1 339     479.57168579       0.01000000     449.15625000
  1 340     479.34631348       0.01000000     448.90625000
  1 341     479.13189697       0.01000000     448.62500000
  1 342     478.92059326       0.01000000     448.37500000
  1 343     478.70983887       0.01000000     448.09375000
  1 344     478.50192261       0.01000000     447.84375000
  1 345     478.29281616       0.01000000     447.56250000
  1 346     478.08563232       0.01000000     447.28125000
  1 347     477.87976074       0.01000000     447.03125000
  1 348     477.67520142       0.01000000     446.75000000
  1 349     477.47247314       0.01000000     446.50000000
  1 350     477.27096558       0.01000000     446.21875000
  1 351     477.07214355       0.01000000     445.96875000
  1 352     476.87576294       0.01000000     445.68750000
  1 353     476.67828369       0.01000000     445.40625000
  1 354     476.48257446       0.01000000     445.15625000
  1 355     476.28887939       0.01000000     444.87500000
  1 356     476.09667969       0.01000000     444.62500000
  1 357     475.90753174       0.01000000     444.34375000
  1 358     475.72125244       0.01000000     444.09375000
  1 359     475.53402710       0.01000000     443.81250000
  1 360     475.34857178       0.01000000     443.53125000
  1 361     475.16430664       0.01000000     443.28125000
  1 362     474.98260498       0.01000000     443.00000000
  1 363     474.80407715       0.01000000     442.75000000
  1 364     474.62475586       0.01000000     442.46875000
  1 365     474.44931030       0.01000000     442.21875000
  1 366     474.27569580       0.01000000     441.93750000
  1 367     474.10290527       0.01000000     441.65625000
  1 368     473.93307495       0.01000000     441.40625000
  1 369     473.76303101       0.01000000     441.12500000
  1 370     473.59530640       0.01000000     440.87500000
  1 371     473.42926025       0.01000000     440.59375000
  1 372     473.26440430       0.01000000     440.34375000
  1 373     473.10214233       0.01000000     440.06250000
  1 374     472.92776489       0.01000000     439.75000000
  1 375     466.54296875       0.01000000     438.18750000
  1 376     466.28228760       0.01000000     437.90625000
  1 377     466.01504517       0.01000000     437.65625000
  1 378     465.74703979       0.01000000     437.37500000
  1 379     465.47653198       0.01000000     437.12500000
  1 380     465.21060181       0.01000000     436.84375000
  1 381     464.94271851       0.01000000     436.59375000
  1 382     464.67105103       0.01000000     436.31250000
  1 383     464.40008545       0.01000000     436.03125000
  1 384     464.12957764       0.01000000     435.78125000
  1 385     463.85867310       0.01000000     435.50000000
  1 386     463.58895874       0.01000000     435.25000000
  1 387     463.32122803       0.01000000     434.96875000
  1 388     463.04977417       0.01000000     434.71875000
  1 389     462.77764893       0.01000000     434.43750000
  1 390     462.50527954       0.01000000     434.15625000
  1 391     462.23361206       0.01000000     433.90625000
  1 392     461.96185303       0.01000000     433.62500000
  1 393     461.68890381       0.01000000     433.37500000
  1 394     461.41470337       0.01000000     433.09375000
  1 395     461.13812256       0.01000000     432.84375000
  1 396     460.86315918       0.01000000     432.56250000
  1 397     460.57458496       0.01000000     432.25000000
  1 398     460.31387329       0.01000000     432.00000000
  1 399     460.06167603       0.01000000     431.71875000
  1 400     459.81146240       0.01000000     431.46875000
  1 401     459.56045532       0.01000000     431.21875000
  1 402     459.33633423       0.01000000     430.96875000
  1 403     459.08349609       0.01000000     432.34375000
  1 404     439.31536865       0.01000000     414.53125000
  1 405     439.09005737       0.01000000     410.00000000
  1 406     438.88696289       0.01000000     409.84375000
  1 407     438.67108154       0.01000000     409.56250000
  1 408     438.44073486       0.01000000     409.31250000
  1 409     438.20605469       0.01000000     409.03125000
  1 410     437.96820068       0.01000000     408.78125000
  1 411     437.73043823       0.01000000     408.53125000
  1 412     437.49432373       0.01000000     408.25000000
  1 413     437.25390625       0.01000000     407.96875000
  1 414     437.03875732       0.01000000     407.71875000
  1 415     436.78930664       0.01000000     407.46875000
  1 416     436.53765869       0.01000000     407.18750000
  1 417     436.29199219       0.01000000     406.90625000
  1 418     436.05590820       0.01000000     406.65625000
  1 419     435.82714844       0.01000000     406.37500000
  1 420     435.59667969       0.01000000     406.09375000
  1 421     435.36364746       0.01000000     406.34375000
  1 422     435.13522339       0.01000000     406.65625000
  1 423     434.90768433       0.01000000     406.62500000
  1 424     434.67700195       0.01000000     406.21875000
  1 425     434.45428467       0.01000000     405.78125000
  1 426     434.23422241       0.01000000     405.34375000
  1 427     434.01507568       0.01000000     404.93750000
  1 428     433.80004883       0.01000000     404.75000000
  1 429     433.58810425       0.01000000     404.31250000
  1 430     433.37237549       0.01000000     403.90625000
  1 431     433.15771484       0.01000000     403.46875000
  1 432     432.94387817       0.01000000     403.06250000
  1 433     432.73168945       0.01000000     402.59375000
  1 434     432.51968384       0.01000000     402.31250000
  1 435     432.30603027       0.01000000     402.06250000
  1 436     432.09213257       0.01000000     401.78125000
  1 437     431.87835693       0.01000000     401.53125000
  1 438     431.66589355       0.01000000     401.25000000
  1 439     431.45419312       0.01000000     400.96875000
  1 440     431.24249268       0.01000000     400.71875000
  1 441     431.04534912       0.01000000     400.43750000
  1 442     460.52764893       0.01000000     436.21875000
  1 443     460.23147583       0.01000000     432.96875000
  1 444     459.96661377       0.01000000     431.65625000
  1 445     459.71502686       0.01000000     431.37500000
  1 446     459.46545410       0.01000000     431.12500000
  1 447     459.22027588       0.01000000     430.87500000
  1 448     458.97412109       0.01000000     430.62500000
  1 449     458.77255249       0.01000000     430.43750000
  1 450     458.53994751       0.01000000     433.40625000
  1 451     439.84857178       0.01000000     415.62500000
  1 452     439.61572266       0.01000000     411.18750000
  1 453     439.40399170       0.01000000     410.37500000
  1 454     439.19415283       0.01000000     410.12500000
  1 455     438.97671509       0.01000000     409.90625000
  1 456     438.73803711       0.01000000     409.62500000
  1 457     438.49200439       0.01000000     409.37500000
  1 458     438.27557373       0.01000000     409.12500000
  1 459     438.03359985       0.01000000     408.84375000
  1 460     437.79013062       0.01000000     408.59375000
  1 461     437.54913330       0.01000000     409.46875000
  1 462     437.29968262       0.01000000     410.65625000
  1 463     459.63171387       0.01000000     434.15625000
  1 464     459.36489868       0.01000000     431.03125000
  1 465     459.10543823       0.01000000     430.75000000
  1 466     458.85427856       0.01000000     430.50000000
  1 467     458.62088013       0.01000000     430.28125000
  1 468     458.39996338       0.01000000     430.06250000
  1 469     458.17712402       0.01000000     431.21875000
  1 470     440.36505127       0.01000000     416.81250000
  1 471     440.15881348       0.01000000     412.62500000
  1 472     439.94750977       0.01000000     410.96875000
  1 473     439.73730469       0.01000000     410.75000000
  1 474     439.52255249       0.01000000     410.50000000
  1 475     439.30218506       0.01000000     410.25000000
  1 476     439.10409546       0.01000000     410.00000000
  1 477     438.83340454       0.01000000     411.90625000
  1 478     438.55596924       0.01000000     412.87500000
  1 479     458.72091675       0.01000000     431.15625000
  1 480     458.46911621       0.01000000     430.15625000
  1 481     458.24740601       0.01000000     429.90625000
  1 482     458.02188110       0.01000000     429.68750000
  1 483     457.82641602       0.01000000     429.46875000
  1 484     457.56604004       0.01000000     433.00000000
  1 485     440.68170166       0.01000000     414.43750000
  1 486     440.48092651       0.01000000     411.56250000
  1 487     440.28057861       0.01000000     411.34375000
  1 488     440.07113647       0.01000000     411.09375000
  1 489     439.85504150       0.01000000     410.87500000
  1 490     439.65759277       0.01000000     410.65625000
  1 491     439.42395020       0.01000000     413.28125000
  1 492     458.32659912       0.01000000     432.21875000
  1 493     458.08416748       0.01000000     429.75000000
  1 494     457.86669922       0.01000000     429.53125000
  1 495     457.64743042       0.01000000     429.31250000
  1 496     457.42636108       0.01000000     429.09375000
  1 497     457.22500610       0.01000000     430.84375000
  1 498     441.02310181       0.01000000     413.50000000
  1 499     440.81497192       0.01000000     411.90625000
  1 500     440.62048340       0.01000000     411.68750000
  1 501     440.41296387       0.01000000     411.46875000
  1 502     440.22152710       0.01000000     411.28125000
  1 503     439.98007202       0.01000000     413.18750000
  1 504     457.73446655       0.01000000     429.43750000
  1 505     457.48995972       0.01000000     429.15625000
  1 506     457.27105713       0.01000000     428.93750000
  1 507     457.05950928       0.01000000     428.71875000
  1 508     456.86233521       0.01000000     428.65625000
  1 509     441.38885498       0.01000000     412.78125000
  1 510     441.16516113       0.01000000     412.28125000
  1 511     440.96951294       0.01000000     412.06250000
  1 512     440.77160645       0.01000000     411.84375000
  1 513     440.57366943       0.01000000     413.18750000
  1 514     457.34692383       0.01000000     430.84375000
  1 515     457.10876465       0.01000000     428.75000000
  1 516     456.89547729       0.01000000     428.56250000
  1 517     456.69461060       0.01000000     428.37500000
  1 518     456.53277588       0.01000000     428.18750000
  1 519     441.91748047       0.01000000     416.81250000
  1 520     441.71124268       0.01000000     412.84375000
  1 521     441.52233887       0.01000000     412.65625000
  1 522     441.32556152       0.01000000     412.46875000
  1 523     441.12695312       0.01000000     412.25000000
  1 524     440.93487549       0.01000000     414.78125000
  1 525     456.94717407       0.01000000     432.43750000
  1 526     456.71990967       0.01000000     428.37500000
  1 527     456.51803589       0.01000000     428.18750000
  1 528     456.33554077       0.01000000     428.00000000
  1 529     456.17312622       0.01000000     428.56250000
  1 530     442.21588135       0.01000000     415.96875000
  1 531     442.05706787       0.01000000     413.25000000
  1 532     441.88165283       0.01000000     413.03125000
  1 533     441.68695068       0.01000000     412.84375000
  1 534     441.50549316       0.01000000     412.65625000
  1 535     441.28356934       0.01000000     416.31250000
  1 536     456.53268433       0.01000000     432.59375000
  1 537     456.32208252       0.01000000     428.00000000
  1 538     456.13891602       0.01000000     427.78125000
  1 539     455.96307373       0.01000000     427.62500000
  1 540     455.80752563       0.01000000     429.25000000
  1 541     442.41000366       0.01000000     413.59375000
  1 542     442.23077393       0.01000000     413.40625000
  1 543     442.05480957       0.01000000     413.21875000
  1 544     441.88244629       0.01000000     413.31250000
  1 545     456.11801147       0.01000000     431.43750000
  1 546     455.93447876       0.01000000     427.59375000
  1 547     455.76034546       0.01000000     427.40625000
  1 548     455.58718872       0.01000000     427.25000000
  1 549     455.41015625       0.01000000     429.96875000
  1 550     442.76544189       0.01000000     413.93750000
  1 551     442.58856201       0.01000000     413.78125000
  1 552     442.42608643       0.01000000     413.59375000
  1 553     442.27435303       0.01000000     415.00000000
  1 554     455.74142456       0.01000000     430.00000000
  1 555     455.55587769       0.01000000     427.21875000
  1 556     455.38201904       0.01000000     427.03125000
  1 557     455.20660400       0.01000000     426.84375000
  1 558     455.04675293       0.01000000     430.28125000
  1 559     443.12948608       0.01000000     415.59375000
  1 560     442.95495605       0.01000000     414.18750000
  1 561     442.79510498       0.01000000     414.00000000
  1 562     442.65368652       0.01000000     413.81250000
  1 563     455.37020874       0.01000000     428.84375000
  1 564     455.17864990       0.01000000     426.81250000
  1 565     455.00604248       0.01000000     426.65625000
  1 566     454.83319092       0.01000000     426.46875000
  1 567     454.65692139       0.01000000     431.34375000
  1 568     443.50848389       0.01000000     417.84375000
  1 569     443.32208252       0.01000000     414.56250000
  1 570     443.15792847       0.01000000     414.37500000
  1 571     442.99337769       0.01000000     414.18750000
  1 572     454.99319458       0.01000000     426.78125000
  1 573     454.81283569       0.01000000     426.43750000
  1 574     454.63943481       0.01000000     426.28125000
  1 575     454.45043945       0.01000000     426.06250000
  1 576     454.23294067       0.01000000     429.40625000
  1 577     443.92010498       0.01000000     417.34375000
  1 578     443.70617676       0.01000000     414.93750000
  1 579     443.51684570       0.01000000     414.75000000
  1 580     443.34814453       0.01000000     414.59375000
  1 581     443.19836426       0.01000000     416.93750000
  1 582     454.78445435       0.01000000     432.00000000
  1 583     454.63446045       0.01000000     426.25000000
  1 584     454.46597290       0.01000000     426.09375000
  1 585     454.27444458       0.01000000     425.87500000
  1 586     454.06372070       0.01000000     425.68750000
  1 587     453.86547852       0.01000000     427.53125000
  1 588     444.28778076       0.01000000     416.78125000
  1 589     444.07611084       0.01000000     415.34375000
  1 590     443.87976074       0.01000000     415.12500000
  1 591     443.69140625       0.01000000     414.93750000
  1 592     443.53280640       0.01000000     415.68750000
  1 593     454.48406982       0.01000000     431.53125000
  1 594     454.30255127       0.01000000     426.46875000
  1 595     454.10974121       0.01000000     425.71875000
  1 596     453.90307617       0.01000000     425.50000000
  1 597     453.69079590       0.01000000     425.31250000
  1 598     453.50534058       0.01000000     425.28125000
  1 599     453.26467896       0.01000000     429.96875000
  1 600     444.66998291       0.01000000     416.15625000
  1 601     444.43777466       0.01000000     415.75000000
  1 602     444.23950195       0.01000000     415.50000000
  1 603     444.04544067       0.01000000     415.31250000
  1 604     443.86306763       0.01000000     416.90625000
  1 605     453.97296143       0.01000000     428.18750000
  1 606     453.74240112       0.01000000     425.34375000
  1 607     453.53204346       0.01000000     425.12500000
  1 608     453.32589722       0.01000000     424.90625000
  1 609     453.11767578       0.01000000     424.68750000
  1 610     452.88970947       0.01000000     427.75000000
  1 611     445.26928711       0.01000000     419.87500000
  1 612     445.01931763       0.01000000     416.31250000
  1 613     444.80560303       0.01000000     416.12500000
  1 614     444.60076904       0.01000000     415.87500000
  1 615     444.39935303       0.01000000     415.68750000
  1 616     444.21640015       0.01000000     418.43750000
  1 617     453.58325195       0.01000000     429.34375000
  1 618     453.37744141       0.01000000     424.96875000
  1 619     453.17474365       0.01000000     424.75000000
  1 620     452.96627808       0.01000000     424.53125000
  1 621     452.74136353       0.01000000     424.31250000
  1 622     452.54171753       0.01000000     424.15625000
  1 623     452.27322388       0.01000000     428.03125000
  1 624     445.88717651       0.01000000     419.75000000
  1 625     445.62454224       0.01000000     416.93750000
  1 626     445.39282227       0.01000000     416.71875000
  1 627     445.16894531       0.01000000     416.46875000
  1 628     444.95550537       0.01000000     416.28125000
  1 629     444.77917480       0.01000000     416.09375000
  1 630     444.55798340       0.01000000     420.00000000
  1 631     453.24679565       0.01000000     430.46875000
  1 632     453.02682495       0.01000000     425.25000000
  1 633     452.82055664       0.01000000     424.40625000
  1 634     452.60400391       0.01000000     424.15625000
  1 635     452.38113403       0.01000000     423.93750000