# MPSIM package for MODPATH 7 generated by Flopy 3.3.5
regional_modelb_mp.mpnam
regional_modelb_mp.mplst
2 1 1 1 0 0
regional_modelb_mp.mpend
regional_modelb_mp.mppth
0
1
0
2
1
1
1
PG1
1
0.0
INTERNAL
1
2
1 0
         1             0.5             0.5             0.5               0         0
