# File generated by Flopy version 3.3.5 on 10/13/2022 at 08:50:00.
BEGIN options
  SAVE_FLOWS
  NEWTON  UNDER_RELAXATION
END options

BEGIN packages
  DISV6  .\regional_model.disv  disv
  IC6  .\regional_model.ic  ic
  NPF6  .\regional_model.npf  npf
  CHD6  .\regional_model.chd  chd_0
  RIV6  .\regional_model.riv  riv_0
  OC6  .\regional_model.oc  oc
END packages

