# File generated by Flopy version 3.3.5 on 10/13/2022 at 08:50:01.
BEGIN options
  BUDGET  FILEOUT  regional_model.cbc
  HEAD  FILEOUT  regional_model.hds
END options

BEGIN period  1
  SAVE  HEAD  ALL
  SAVE  BUDGET  ALL
END period  1

