# File generated by Flopy version 3.3.5 on 09/29/2022 at 14:16:29.
BEGIN options
  READASARRAYS
END options

BEGIN period  1
  recharge
    CONSTANT  4.75646880E-09
END period  1

