# File generated by Flopy version 3.3.5 on 10/13/2022 at 08:50:01.
BEGIN options
END options

BEGIN dimensions
  MAXBOUND  30
END dimensions

BEGIN period  1
  1 33     480.00000000
  1 54     480.00000000
  1 77     480.00000000
  1 102     480.00000000
  1 146     480.00000000
  1 238     480.00000000
  1 338     480.00000000
  1 836     480.00000000
  1 837     480.00000000
  1 1203     480.00000000
  1 1204     480.00000000
  1 1516     480.00000000
  1 1517     480.00000000
  1 1672     480.00000000
  1 1673     480.00000000
  3 53     430.00000000
  3 76     430.00000000
  3 101     430.00000000
  3 129     430.00000000
  1 237     430.00000000
  1 337     430.00000000
  1 441     430.00000000
  3 1020     430.00000000
  3 1021     430.00000000
  1 1387     430.00000000
  1 1388     430.00000000
  3 1608     430.00000000
  3 1609     430.00000000
  3 1717     430.00000000
  3 1718     430.00000000
END period  1

