# File generated by Flopy version 3.3.5 on 09/29/2022 at 14:07:10.
BEGIN options
  PRINT_OPTION  all
  COMPLEXITY  simple
END options

BEGIN nonlinear
  OUTER_HCLOSE  1.00000000E-05
  OUTER_MAXIMUM  50
  UNDER_RELAXATION  none
END nonlinear

BEGIN linear
  INNER_MAXIMUM  30
  INNER_HCLOSE  1.00000000E-05
  LINEAR_ACCELERATION  cg
  PRECONDITIONER_LEVELS  7
  PRECONDITIONER_DROP_TOLERANCE       0.01000000
  NUMBER_ORTHOGONALIZATIONS  2
END linear

