# File generated by Flopy version 3.8.2 on 11/05/2024 at 12:54:18.
BEGIN options
END options

BEGIN timing
  TDIS6  mymodel.tdis
END timing

BEGIN models
  gwf6  mymodel.nam  mymodel
END models

BEGIN exchanges
END exchanges

BEGIN solutiongroup  1
  ims6  mymodel.ims  mymodel
END solutiongroup  1

