# File generated by Flopy version 3.8.2 on 11/05/2024 at 12:54:18.
BEGIN options
  VERTICAL_OFFSET_TOLERANCE       0.00000000
END options

BEGIN dimensions
  NODES  732
  NJA  4892
  NVERT  2928
END dimensions

BEGIN griddata
  top
    INTERNAL  FACTOR  1.0
         1.00000000       1.00000000       1.00000000       1.00000000       1.00000000       1.00000000       1.00000000       1.00000000       1.00000000       1.00000000       1.00000000       1.00000000       1.00000000       1.00000000       1.00000000       1.00000000       1.00000000       1.00000000       1.00000000       1.00000000
         1.00000000       1.00000000       1.00000000       1.00000000       1.00000000       1.00000000       1.00000000       1.00000000       1.00000000       1.00000000       1.00000000       1.00000000       1.00000000       1.00000000       1.00000000       1.00000000       1.00000000       1.00000000       1.00000000       1.00000000
         1.00000000       1.00000000       1.00000000       1.00000000       1.00000000       1.00000000       1.00000000       1.00000000       1.00000000       1.00000000       1.00000000       1.00000000       1.00000000       1.00000000       1.00000000       1.00000000       1.00000000       1.00000000       1.00000000       1.00000000
         1.00000000       1.00000000       1.00000000       1.00000000       1.00000000       1.00000000       1.00000000       1.00000000       1.00000000       1.00000000       1.00000000       1.00000000       1.00000000       1.00000000       1.00000000       1.00000000       1.00000000       1.00000000       1.00000000       1.00000000
         1.00000000       1.00000000       1.00000000       1.00000000       1.00000000       1.00000000       1.00000000       1.00000000       1.00000000       1.00000000       1.00000000       1.00000000       1.00000000       1.00000000       1.00000000       1.00000000       1.00000000       1.00000000       1.00000000       1.00000000
         1.00000000       1.00000000       1.00000000       1.00000000       1.00000000       1.00000000       1.00000000       1.00000000       1.00000000       1.00000000       1.00000000       1.00000000       1.00000000       1.00000000       1.00000000       1.00000000       1.00000000       1.00000000       1.00000000       1.00000000
         1.00000000       1.00000000       1.00000000       1.00000000       1.00000000       1.00000000       1.00000000       1.00000000       1.00000000       1.00000000       1.00000000       1.00000000       1.00000000       1.00000000       1.00000000       1.00000000       1.00000000       1.00000000       1.00000000       1.00000000
         1.00000000       1.00000000       1.00000000       1.00000000       1.00000000       1.00000000       1.00000000       1.00000000       1.00000000       1.00000000       1.00000000       1.00000000       1.00000000       1.00000000       1.00000000       1.00000000       1.00000000       1.00000000       1.00000000       1.00000000
         1.00000000       1.00000000       1.00000000       1.00000000       1.00000000       1.00000000       1.00000000       1.00000000       1.00000000       1.00000000       1.00000000       1.00000000       1.00000000       1.00000000       1.00000000       1.00000000       1.00000000       1.00000000       1.00000000       1.00000000
         1.00000000       1.00000000       1.00000000       1.00000000       1.00000000       1.00000000       1.00000000       1.00000000       1.00000000       1.00000000       1.00000000       1.00000000       1.00000000       1.00000000       1.00000000       1.00000000       1.00000000       1.00000000       1.00000000       1.00000000
         1.00000000       1.00000000       1.00000000       1.00000000       1.00000000       1.00000000       1.00000000       1.00000000       1.00000000       1.00000000       1.00000000       1.00000000       1.00000000       1.00000000       1.00000000       1.00000000       1.00000000       1.00000000       1.00000000       1.00000000
         1.00000000       1.00000000       1.00000000       1.00000000       1.00000000       1.00000000       1.00000000       1.00000000       1.00000000       1.00000000       1.00000000       1.00000000       1.00000000       1.00000000       1.00000000       1.00000000       1.00000000       1.00000000       1.00000000       1.00000000
         1.00000000       1.00000000       1.00000000       1.00000000       1.00000000       1.00000000       1.00000000       1.00000000       1.00000000       1.00000000       1.00000000       1.00000000       1.00000000       1.00000000       1.00000000       1.00000000       1.00000000       1.00000000       1.00000000       1.00000000
         1.00000000       1.00000000       1.00000000       1.00000000       1.00000000       1.00000000       1.00000000       1.00000000       1.00000000       1.00000000       1.00000000       1.00000000       1.00000000       1.00000000       1.00000000       1.00000000       1.00000000       1.00000000       1.00000000       1.00000000
         1.00000000       1.00000000       1.00000000       1.00000000       1.00000000       1.00000000       1.00000000       1.00000000       1.00000000       1.00000000       1.00000000       1.00000000       1.00000000       1.00000000       1.00000000       1.00000000       1.00000000       1.00000000       1.00000000       1.00000000
         1.00000000       1.00000000       1.00000000       1.00000000       1.00000000       1.00000000       1.00000000       1.00000000       1.00000000       1.00000000       1.00000000       1.00000000       1.00000000       1.00000000       1.00000000       1.00000000       1.00000000       1.00000000       1.00000000       1.00000000
         1.00000000       1.00000000       1.00000000       1.00000000       1.00000000       1.00000000       1.00000000       1.00000000       1.00000000       1.00000000       1.00000000       1.00000000       1.00000000       1.00000000       1.00000000       1.00000000       1.00000000       1.00000000       1.00000000       1.00000000
         1.00000000       1.00000000       1.00000000       1.00000000       1.00000000       1.00000000       1.00000000       1.00000000       1.00000000       1.00000000       1.00000000       1.00000000       1.00000000       1.00000000       1.00000000       1.00000000       1.00000000       1.00000000       1.00000000       1.00000000
         1.00000000       1.00000000       1.00000000       1.00000000       1.00000000       1.00000000       1.00000000       1.00000000       1.00000000       1.00000000       1.00000000       1.00000000       1.00000000       1.00000000       1.00000000       1.00000000       1.00000000       1.00000000       1.00000000       1.00000000
         1.00000000       1.00000000       1.00000000       1.00000000       1.00000000       1.00000000       1.00000000       1.00000000       1.00000000       1.00000000       1.00000000       1.00000000       1.00000000       1.00000000       1.00000000       1.00000000       1.00000000       1.00000000       1.00000000       1.00000000
         1.00000000       1.00000000       1.00000000       1.00000000       1.00000000       1.00000000       1.00000000       1.00000000       1.00000000       1.00000000       1.00000000       1.00000000       1.00000000       1.00000000       1.00000000       1.00000000       1.00000000       1.00000000       1.00000000       1.00000000
         1.00000000       1.00000000       1.00000000       1.00000000       1.00000000       1.00000000       1.00000000       1.00000000       1.00000000       1.00000000       1.00000000       1.00000000       1.00000000       1.00000000       1.00000000       1.00000000       0.66666669       0.66666669       0.66666669       0.66666669
         0.66666669       0.66666669       0.66666669       0.66666669       0.66666669       0.66666669       0.66666669       0.66666669       0.66666669       0.66666669       0.66666669       0.66666669       0.66666669       0.66666669       0.66666669       0.66666669       0.66666669       0.66666669       0.66666669       0.66666669
         0.66666669       0.66666669       0.66666669       0.66666669       0.66666669       0.66666669       0.66666669       0.66666669       0.66666669       0.66666669       0.66666669       0.66666669       0.66666669       0.66666669       0.66666669       0.66666669       0.66666669       0.66666669       0.66666669       0.66666669
         0.66666669       0.66666669       0.66666669       0.66666669       0.66666669       0.66666669       0.66666669       0.66666669       0.66666669       0.66666669       0.66666669       0.66666669       0.66666669       0.66666669       0.66666669       0.66666669       0.66666669       0.66666669       0.66666669       0.66666669
         0.66666669       0.66666669       0.66666669       0.66666669       0.66666669       0.66666669       0.66666669       0.66666669       0.66666669       0.66666669       0.66666669       0.66666669       0.66666669       0.66666669       0.66666669       0.66666669       0.66666669       0.66666669       0.66666669       0.66666669
         0.66666669       0.66666669       0.66666669       0.66666669       0.66666669       0.66666669       0.66666669       0.66666669       0.66666669       0.66666669       0.66666669       0.66666669       0.66666669       0.66666669       0.66666669       0.66666669       0.66666669       0.66666669       0.66666669       0.66666669
         0.66666669       0.66666669       0.66666669       0.66666669       0.66666669       0.66666669       0.66666669       0.66666669       0.66666669       0.66666669       0.66666669       0.66666669       0.66666669       0.66666669       0.66666669       0.66666669       0.66666669       0.66666669       0.66666669       0.66666669
         0.66666669       0.66666669       0.66666669       0.66666669       0.66666669       0.66666669       0.66666669       0.66666669       0.66666669       0.66666669       0.66666669       0.66666669       0.66666669       0.66666669       0.66666669       0.66666669       0.66666669       0.66666669       0.66666669       0.66666669
         0.66666669       0.66666669       0.66666669       0.66666669       0.66666669       0.66666669       0.66666669       0.66666669       0.66666669       0.66666669       0.66666669       0.66666669       0.66666669       0.66666669       0.66666669       0.66666669       0.66666669       0.66666669       0.66666669       0.66666669
         0.66666669       0.66666669       0.66666669       0.66666669       0.66666669       0.66666669       0.66666669       0.66666669       0.66666669       0.66666669       0.66666669       0.66666669       0.66666669       0.66666669       0.66666669       0.66666669       0.66666669       0.66666669       0.66666669       0.66666669
         0.33333334       0.33333334       0.33333334       0.33333334       0.33333334       0.33333334       0.33333334       0.33333334       0.33333334       0.33333334       0.33333334       0.33333334       0.33333334       0.33333334       0.33333334       0.33333334       0.33333334       0.33333334       0.33333334       0.33333334
         0.33333334       0.33333334       0.33333334       0.33333334       0.33333334       0.33333334       0.33333334       0.33333334       0.33333334       0.33333334       0.33333334       0.33333334       0.33333334       0.33333334       0.33333334       0.33333334       0.33333334       0.33333334       0.33333334       0.33333334
         0.33333334       0.33333334       0.33333334       0.33333334       0.33333334       0.33333334       0.33333334       0.33333334       0.33333334       0.33333334       0.33333334       0.33333334       0.33333334       0.33333334       0.33333334       0.33333334       0.33333334       0.33333334       0.33333334       0.33333334
         0.33333334       0.33333334       0.33333334       0.33333334       0.33333334       0.33333334       0.33333334       0.33333334       0.33333334       0.33333334       0.33333334       0.33333334       0.33333334       0.33333334       0.33333334       0.33333334       0.33333334       0.33333334       0.33333334       0.33333334
         0.33333334       0.33333334       0.33333334       0.33333334       0.33333334       0.33333334       0.33333334       0.33333334       0.33333334       0.33333334       0.33333334       0.33333334       0.33333334       0.33333334       0.33333334       0.33333334       0.33333334       0.33333334       0.33333334       0.33333334
         0.33333334       0.33333334       0.33333334       0.33333334       0.33333334       0.33333334       0.33333334       0.33333334       0.33333334       0.33333334       0.33333334       0.33333334
  bot
    INTERNAL  FACTOR  1.0
         0.66666669       0.66666669       0.66666669       0.66666669       0.66666669       0.66666669       0.66666669       0.66666669       0.66666669       0.66666669       0.66666669       0.66666669       0.66666669       0.66666669       0.66666669       0.66666669       0.66666669       0.66666669       0.66666669       0.66666669
         0.66666669       0.66666669       0.66666669       0.66666669       0.66666669       0.66666669       0.66666669       0.66666669       0.66666669       0.66666669       0.66666669       0.66666669       0.66666669       0.66666669       0.66666669       0.66666669       0.66666669       0.66666669       0.66666669       0.66666669
         0.66666669       0.66666669       0.66666669       0.66666669       0.66666669       0.66666669       0.66666669       0.66666669       0.66666669       0.66666669       0.66666669       0.66666669       0.66666669       0.66666669       0.66666669       0.66666669       0.66666669       0.66666669       0.66666669       0.66666669
         0.66666669       0.66666669       0.66666669       0.66666669       0.66666669       0.66666669       0.66666669       0.66666669       0.66666669       0.66666669       0.66666669       0.66666669       0.66666669       0.66666669       0.66666669       0.66666669       0.66666669       0.66666669       0.66666669       0.66666669
         0.66666669       0.66666669       0.66666669       0.66666669       0.66666669       0.66666669       0.66666669       0.66666669       0.66666669       0.66666669       0.66666669       0.66666669       0.66666669       0.66666669       0.66666669       0.66666669       0.66666669       0.66666669       0.66666669       0.66666669
         0.66666669       0.66666669       0.66666669       0.66666669       0.66666669       0.66666669       0.66666669       0.66666669       0.66666669       0.66666669       0.66666669       0.66666669       0.66666669       0.66666669       0.66666669       0.66666669       0.66666669       0.66666669       0.66666669       0.66666669
         0.66666669       0.66666669       0.66666669       0.66666669       0.66666669       0.66666669       0.66666669       0.66666669       0.66666669       0.66666669       0.66666669       0.66666669       0.66666669       0.66666669       0.66666669       0.66666669       0.66666669       0.66666669       0.66666669       0.66666669
         0.66666669       0.66666669       0.66666669       0.66666669       0.66666669       0.66666669       0.66666669       0.66666669       0.66666669       0.66666669       0.66666669       0.66666669       0.66666669       0.66666669       0.66666669       0.66666669       0.66666669       0.66666669       0.66666669       0.66666669
         0.66666669       0.66666669       0.66666669       0.66666669       0.66666669       0.66666669       0.66666669       0.66666669       0.66666669       0.66666669       0.66666669       0.66666669       0.66666669       0.66666669       0.66666669       0.66666669       0.66666669       0.66666669       0.66666669       0.66666669
         0.66666669       0.66666669       0.66666669       0.66666669       0.66666669       0.66666669       0.66666669       0.66666669       0.66666669       0.66666669       0.66666669       0.66666669       0.66666669       0.66666669       0.66666669       0.66666669       0.66666669       0.66666669       0.66666669       0.66666669
         0.66666669       0.66666669       0.66666669       0.66666669       0.66666669       0.66666669       0.66666669       0.66666669       0.66666669       0.66666669       0.66666669       0.66666669       0.66666669       0.66666669       0.66666669       0.66666669       0.66666669       0.66666669       0.66666669       0.66666669
         0.66666669       0.66666669       0.66666669       0.66666669       0.66666669       0.66666669       0.66666669       0.66666669       0.66666669       0.66666669       0.66666669       0.66666669       0.66666669       0.66666669       0.66666669       0.66666669       0.66666669       0.66666669       0.66666669       0.66666669
         0.66666669       0.66666669       0.66666669       0.66666669       0.66666669       0.66666669       0.66666669       0.66666669       0.66666669       0.66666669       0.66666669       0.66666669       0.66666669       0.66666669       0.66666669       0.66666669       0.66666669       0.66666669       0.66666669       0.66666669
         0.66666669       0.66666669       0.66666669       0.66666669       0.66666669       0.66666669       0.66666669       0.66666669       0.66666669       0.66666669       0.66666669       0.66666669       0.66666669       0.66666669       0.66666669       0.66666669       0.66666669       0.66666669       0.66666669       0.66666669
         0.66666669       0.66666669       0.66666669       0.66666669       0.66666669       0.66666669       0.66666669       0.66666669       0.66666669       0.66666669       0.66666669       0.66666669       0.66666669       0.66666669       0.66666669       0.66666669       0.66666669       0.66666669       0.66666669       0.66666669
         0.66666669       0.66666669       0.66666669       0.66666669       0.66666669       0.66666669       0.66666669       0.66666669       0.66666669       0.66666669       0.66666669       0.66666669       0.66666669       0.66666669       0.66666669       0.66666669       0.66666669       0.66666669       0.66666669       0.66666669
         0.66666669       0.66666669       0.66666669       0.66666669       0.66666669       0.66666669       0.66666669       0.66666669       0.66666669       0.66666669       0.66666669       0.66666669       0.66666669       0.66666669       0.66666669       0.66666669       0.66666669       0.66666669       0.66666669       0.66666669
         0.66666669       0.66666669       0.66666669       0.66666669       0.66666669       0.66666669       0.66666669       0.66666669       0.66666669       0.66666669       0.66666669       0.66666669       0.66666669       0.66666669       0.66666669       0.66666669       0.66666669       0.66666669       0.66666669       0.66666669
         0.66666669       0.66666669       0.66666669       0.66666669       0.66666669       0.66666669       0.66666669       0.66666669       0.66666669       0.66666669       0.66666669       0.66666669       0.66666669       0.66666669       0.66666669       0.66666669       0.66666669       0.66666669       0.66666669       0.66666669
         0.66666669       0.66666669       0.66666669       0.66666669       0.66666669       0.66666669       0.66666669       0.66666669       0.66666669       0.66666669       0.66666669       0.66666669       0.66666669       0.66666669       0.66666669       0.66666669       0.66666669       0.66666669       0.66666669       0.66666669
         0.66666669       0.66666669       0.66666669       0.66666669       0.66666669       0.66666669       0.66666669       0.66666669       0.66666669       0.66666669       0.66666669       0.66666669       0.66666669       0.66666669       0.66666669       0.66666669       0.66666669       0.66666669       0.66666669       0.66666669
         0.66666669       0.66666669       0.66666669       0.66666669       0.66666669       0.66666669       0.66666669       0.66666669       0.66666669       0.66666669       0.66666669       0.66666669       0.66666669       0.66666669       0.66666669       0.66666669       0.33333334       0.33333334       0.33333334       0.33333334
         0.33333334       0.33333334       0.33333334       0.33333334       0.33333334       0.33333334       0.33333334       0.33333334       0.33333334       0.33333334       0.33333334       0.33333334       0.33333334       0.33333334       0.33333334       0.33333334       0.33333334       0.33333334       0.33333334       0.33333334
         0.33333334       0.33333334       0.33333334       0.33333334       0.33333334       0.33333334       0.33333334       0.33333334       0.33333334       0.33333334       0.33333334       0.33333334       0.33333334       0.33333334       0.33333334       0.33333334       0.33333334       0.33333334       0.33333334       0.33333334
         0.33333334       0.33333334       0.33333334       0.33333334       0.33333334       0.33333334       0.33333334       0.33333334       0.33333334       0.33333334       0.33333334       0.33333334       0.33333334       0.33333334       0.33333334       0.33333334       0.33333334       0.33333334       0.33333334       0.33333334
         0.33333334       0.33333334       0.33333334       0.33333334       0.33333334       0.33333334       0.33333334       0.33333334       0.33333334       0.33333334       0.33333334       0.33333334       0.33333334       0.33333334       0.33333334       0.33333334       0.33333334       0.33333334       0.33333334       0.33333334
         0.33333334       0.33333334       0.33333334       0.33333334       0.33333334       0.33333334       0.33333334       0.33333334       0.33333334       0.33333334       0.33333334       0.33333334       0.33333334       0.33333334       0.33333334       0.33333334       0.33333334       0.33333334       0.33333334       0.33333334
         0.33333334       0.33333334       0.33333334       0.33333334       0.33333334       0.33333334       0.33333334       0.33333334       0.33333334       0.33333334       0.33333334       0.33333334       0.33333334       0.33333334       0.33333334       0.33333334       0.33333334       0.33333334       0.33333334       0.33333334
         0.33333334       0.33333334       0.33333334       0.33333334       0.33333334       0.33333334       0.33333334       0.33333334       0.33333334       0.33333334       0.33333334       0.33333334       0.33333334       0.33333334       0.33333334       0.33333334       0.33333334       0.33333334       0.33333334       0.33333334
         0.33333334       0.33333334       0.33333334       0.33333334       0.33333334       0.33333334       0.33333334       0.33333334       0.33333334       0.33333334       0.33333334       0.33333334       0.33333334       0.33333334       0.33333334       0.33333334       0.33333334       0.33333334       0.33333334       0.33333334
         0.33333334       0.33333334       0.33333334       0.33333334       0.33333334       0.33333334       0.33333334       0.33333334       0.33333334       0.33333334       0.33333334       0.33333334       0.33333334       0.33333334       0.33333334       0.33333334       0.33333334       0.33333334       0.33333334       0.33333334
         0.00000000       0.00000000       0.00000000       0.00000000       0.00000000       0.00000000       0.00000000       0.00000000       0.00000000       0.00000000       0.00000000       0.00000000       0.00000000       0.00000000       0.00000000       0.00000000       0.00000000       0.00000000       0.00000000       0.00000000
         0.00000000       0.00000000       0.00000000       0.00000000       0.00000000       0.00000000       0.00000000       0.00000000       0.00000000       0.00000000       0.00000000       0.00000000       0.00000000       0.00000000       0.00000000       0.00000000       0.00000000       0.00000000       0.00000000       0.00000000
         0.00000000       0.00000000       0.00000000       0.00000000       0.00000000       0.00000000       0.00000000       0.00000000       0.00000000       0.00000000       0.00000000       0.00000000       0.00000000       0.00000000       0.00000000       0.00000000       0.00000000       0.00000000       0.00000000       0.00000000
         0.00000000       0.00000000       0.00000000       0.00000000       0.00000000       0.00000000       0.00000000       0.00000000       0.00000000       0.00000000       0.00000000       0.00000000       0.00000000       0.00000000       0.00000000       0.00000000       0.00000000       0.00000000       0.00000000       0.00000000
         0.00000000       0.00000000       0.00000000       0.00000000       0.00000000       0.00000000       0.00000000       0.00000000       0.00000000       0.00000000       0.00000000       0.00000000       0.00000000       0.00000000       0.00000000       0.00000000       0.00000000       0.00000000       0.00000000       0.00000000
         0.00000000       0.00000000       0.00000000       0.00000000       0.00000000       0.00000000       0.00000000       0.00000000       0.00000000       0.00000000       0.00000000       0.00000000
  area
    INTERNAL  FACTOR  1.0
         1.00000000       1.00000000       1.00000000       1.00000000       1.00000000       1.00000000       1.00000000       1.00000000       1.00000000       1.00000000       1.00000000       1.00000000       1.00000000       1.00000000       1.00000000       1.00000000       1.00000000       1.00000000       1.00000000       1.00000000
         1.00000000       1.00000000       1.00000000       1.00000000       1.00000000       1.00000000       1.00000000       1.00000000       1.00000000       1.00000000       1.00000000       1.00000000       1.00000000       0.25000000       0.25000000       0.25000000       0.25000000       0.25000000       0.25000000       0.06250000
         0.06250000       0.06250000       0.06250000       0.06250000       0.06250000       0.06250000       0.06250000       0.25000000       0.25000000       0.06250000       0.06250000       0.06250000       0.06250000       0.06250000       0.06250000       0.06250000       0.06250000       0.25000000       0.25000000       0.25000000
         0.25000000       1.00000000       1.00000000       1.00000000       1.00000000       1.00000000       1.00000000       0.25000000       0.06250000       0.06250000       0.06250000       0.06250000       0.25000000       0.06250000       0.06250000       0.06250000       0.06250000       0.01562500       0.01562500       0.01562500
         0.01562500       0.01562500       0.01562500       0.01562500       0.01562500       0.01562500       0.01562500       0.01562500       0.01562500       0.01562500       0.01562500       0.01562500       0.01562500       0.01562500       0.01562500       0.01562500       0.01562500       0.01562500       0.01562500       0.01562500
         0.01562500       0.01562500       0.01562500       0.01562500       0.01562500       0.01562500       0.01562500       0.01562500       0.01562500       0.01562500       0.01562500       0.01562500       0.01562500       0.01562500       0.01562500       0.01562500       0.01562500       0.01562500       0.01562500       0.01562500
         0.01562500       0.01562500       0.01562500       0.01562500       0.01562500       0.01562500       0.01562500       0.01562500       0.01562500       0.01562500       0.01562500       0.01562500       0.01562500       0.01562500       0.01562500       0.01562500       0.01562500       0.01562500       0.01562500       0.01562500
         0.01562500       0.01562500       0.01562500       0.01562500       0.01562500       0.01562500       0.01562500       0.01562500       0.01562500       0.01562500       0.01562500       0.01562500       0.01562500       0.01562500       0.01562500       0.01562500       0.01562500       0.01562500       0.01562500       0.01562500
         0.01562500       0.01562500       0.01562500       0.01562500       0.01562500       0.01562500       0.01562500       0.01562500       0.01562500       0.01562500       0.01562500       0.01562500       0.01562500       0.01562500       0.01562500       0.01562500       0.01562500       0.01562500       0.01562500       0.01562500
         0.01562500       0.01562500       0.01562500       0.01562500       0.01562500       0.01562500       0.01562500       0.01562500       0.01562500       0.01562500       0.01562500       0.01562500       0.01562500       0.01562500       0.01562500       0.01562500       0.01562500       0.01562500       0.01562500       0.01562500
         0.01562500       0.01562500       0.01562500       0.01562500       0.01562500       0.06250000       0.06250000       0.06250000       0.06250000       0.25000000       0.06250000       0.06250000       0.06250000       0.06250000       0.25000000       1.00000000       1.00000000       1.00000000       1.00000000       1.00000000
         1.00000000       0.25000000       0.06250000       0.06250000       0.06250000       0.06250000       0.25000000       0.06250000       0.06250000       0.06250000       0.06250000       0.01562500       0.01562500       0.01562500       0.01562500       0.01562500       0.01562500       0.01562500       0.01562500       0.01562500
         0.01562500       0.01562500       0.01562500       0.01562500       0.01562500       0.01562500       0.01562500       0.01562500       0.01562500       0.01562500       0.01562500       0.01562500       0.01562500       0.01562500       0.01562500       0.01562500       0.01562500       0.01562500       0.01562500       0.01562500