# File generated by Flopy version 3.8.2 on 11/05/2024 at 12:54:18.
BEGIN options
END options

BEGIN dimensions
  NPER  1
END dimensions

BEGIN perioddata
       1.00000000  1       1.00000000
END perioddata

