# File generated by Flopy version 3.8.2 on 11/05/2024 at 12:54:19.
BEGIN options
END options

BEGIN griddata
  strt
    CONSTANT       1.00000000
END griddata

