# File generated by Flopy version 3.8.2 on 11/05/2024 at 12:54:19.
BEGIN options
END options

BEGIN dimensions
  MAXBOUND  2
END dimensions

BEGIN period  1
  1 1.00000000E+00
  436 0.00000000E+00
END period  1

