# File generated by Flopy version 3.8.2 on 11/05/2024 at 12:54:11.
BEGIN options
END options

BEGIN linear
  LINEAR_ACCELERATION  bicgstab
END linear

