# File generated by Flopy version 3.8.2 on 11/05/2024 at 12:54:11.
BEGIN options
  SAVE_FLOWS
END options

BEGIN packages
  DISV6  mymodel.disv  disv
  IC6  mymodel.ic  ic
  NPF6  mymodel.npf  npf
  CHD6  mymodel.chd  chd_0
  OC6  mymodel.oc  oc
END packages

