# File generated by Flopy version 3.8.2 on 11/05/2024 at 12:54:11.
BEGIN options
  BUDGET  FILEOUT  mymodel.bud
  HEAD  FILEOUT  mymodel.hds
END options

BEGIN period  1
  SAVE  HEAD  ALL
  SAVE  BUDGET  ALL
END period  1

