# File generated by Flopy version 3.8.2 on 11/05/2024 at 12:54:11.
BEGIN options
END options

BEGIN dimensions
  NLAY  3
  NCPL  436
  NVERT  493
END dimensions

BEGIN griddata
  top
    INTERNAL  FACTOR  1.0
         1.00000000       1.00000000       1.00000000       1.00000000       1.00000000       1.00000000       1.00000000       1.00000000       1.00000000       1.00000000       1.00000000       1.00000000       1.00000000       1.00000000       1.00000000       1.00000000       1.00000000       1.00000000       1.00000000       1.00000000
         1.00000000       1.00000000       1.00000000       1.00000000       1.00000000       1.00000000       1.00000000       1.00000000       1.00000000       1.00000000       1.00000000       1.00000000       1.00000000       1.00000000       1.00000000       1.00000000       1.00000000       1.00000000       1.00000000       1.00000000
         1.00000000       1.00000000       1.00000000       1.00000000       1.00000000       1.00000000       1.00000000       1.00000000       1.00000000       1.00000000       1.00000000       1.00000000       1.00000000       1.00000000       1.00000000       1.00000000       1.00000000       1.00000000       1.00000000       1.00000000
         1.00000000       1.00000000       1.00000000       1.00000000       1.00000000       1.00000000       1.00000000       1.00000000       1.00000000       1.00000000       1.00000000       1.00000000       1.00000000       1.00000000       1.00000000       1.00000000       1.00000000       1.00000000       1.00000000       1.00000000
         1.00000000       1.00000000       1.00000000       1.00000000       1.00000000       1.00000000       1.00000000       1.00000000       1.00000000       1.00000000       1.00000000       1.00000000       1.00000000       1.00000000       1.00000000       1.00000000       1.00000000       1.00000000       1.00000000       1.00000000
         1.00000000       1.00000000       1.00000000       1.00000000       1.00000000       1.00000000       1.00000000       1.00000000       1.00000000       1.00000000       1.00000000       1.00000000       1.00000000       1.00000000       1.00000000       1.00000000       1.00000000       1.00000000       1.00000000       1.00000000
         1.00000000       1.00000000       1.00000000       1.00000000       1.00000000       1.00000000       1.00000000       1.00000000       1.00000000       1.00000000       1.00000000       1.00000000       1.00000000       1.00000000       1.00000000       1.00000000       1.00000000       1.00000000       1.00000000       1.00000000
         1.00000000       1.00000000       1.00000000       1.00000000       1.00000000       1.00000000       1.00000000       1.00000000       1.00000000       1.00000000       1.00000000       1.00000000       1.00000000       1.00000000       1.00000000       1.00000000       1.00000000       1.00000000       1.00000000       1.00000000
         1.00000000       1.00000000       1.00000000       1.00000000       1.00000000       1.00000000       1.00000000       1.00000000       1.00000000       1.00000000       1.00000000       1.00000000       1.00000000       1.00000000       1.00000000       1.00000000       1.00000000       1.00000000       1.00000000       1.00000000
         1.00000000       1.00000000       1.00000000       1.00000000       1.00000000       1.00000000       1.00000000       1.00000000       1.00000000       1.00000000       1.00000000       1.00000000       1.00000000       1.00000000       1.00000000       1.00000000       1.00000000       1.00000000       1.00000000       1.00000000
         1.00000000       1.00000000       1.00000000       1.00000000       1.00000000       1.00000000       1.00000000       1.00000000       1.00000000       1.00000000       1.00000000       1.00000000       1.00000000       1.00000000       1.00000000       1.00000000       1.00000000       1.00000000       1.00000000       1.00000000
         1.00000000       1.00000000       1.00000000       1.00000000       1.00000000       1.00000000       1.00000000       1.00000000       1.00000000       1.00000000       1.00000000       1.00000000       1.00000000       1.00000000       1.00000000       1.00000000       1.00000000       1.00000000       1.00000000       1.00000000
         1.00000000       1.00000000       1.00000000       1.00000000       1.00000000       1.00000000       1.00000000       1.00000000       1.00000000       1.00000000       1.00000000       1.00000000       1.00000000       1.00000000       1.00000000       1.00000000       1.00000000       1.00000000       1.00000000       1.00000000
         1.00000000       1.00000000       1.00000000       1.00000000       1.00000000       1.00000000       1.00000000       1.00000000       1.00000000       1.00000000       1.00000000       1.00000000       1.00000000       1.00000000       1.00000000       1.00000000       1.00000000       1.00000000       1.00000000       1.00000000
         1.00000000       1.00000000       1.00000000       1.00000000       1.00000000       1.00000000       1.00000000       1.00000000       1.00000000       1.00000000       1.00000000       1.00000000       1.00000000       1.00000000       1.00000000       1.00000000       1.00000000       1.00000000       1.00000000       1.00000000
         1.00000000       1.00000000       1.00000000       1.00000000       1.00000000       1.00000000       1.00000000       1.00000000       1.00000000       1.00000000       1.00000000       1.00000000       1.00000000       1.00000000       1.00000000       1.00000000       1.00000000       1.00000000       1.00000000       1.00000000
         1.00000000       1.00000000       1.00000000       1.00000000       1.00000000       1.00000000       1.00000000       1.00000000       1.00000000       1.00000000       1.00000000       1.00000000       1.00000000       1.00000000       1.00000000       1.00000000       1.00000000       1.00000000       1.00000000       1.00000000
         1.00000000       1.00000000       1.00000000       1.00000000       1.00000000       1.00000000       1.00000000       1.00000000       1.00000000       1.00000000       1.00000000       1.00000000       1.00000000       1.00000000       1.00000000       1.00000000       1.00000000       1.00000000       1.00000000       1.00000000
         1.00000000       1.00000000       1.00000000       1.00000000       1.00000000       1.00000000       1.00000000       1.00000000       1.00000000       1.00000000       1.00000000       1.00000000       1.00000000       1.00000000       1.00000000       1.00000000       1.00000000       1.00000000       1.00000000       1.00000000
         1.00000000       1.00000000       1.00000000       1.00000000       1.00000000       1.00000000       1.00000000       1.00000000       1.00000000       1.00000000       1.00000000       1.00000000       1.00000000       1.00000000       1.00000000       1.00000000       1.00000000       1.00000000       1.00000000       1.00000000
         1.00000000       1.00000000       1.00000000       1.00000000       1.00000000       1.00000000       1.00000000       1.00000000       1.00000000       1.00000000       1.00000000       1.00000000       1.00000000       1.00000000       1.00000000       1.00000000       1.00000000       1.00000000       1.00000000       1.00000000
         1.00000000       1.00000000       1.00000000       1.00000000       1.00000000       1.00000000       1.00000000       1.00000000       1.00000000       1.00000000       1.00000000       1.00000000       1.00000000       1.00000000       1.00000000       1.00000000
  botm  LAYERED
    INTERNAL  FACTOR  1.0
           0.66666669       0.66666669       0.66666669       0.66666669       0.66666669       0.66666669       0.66666669       0.66666669       0.66666669       0.66666669       0.66666669       0.66666669       0.66666669       0.66666669       0.66666669       0.66666669       0.66666669       0.66666669       0.66666669       0.66666669
           0.66666669       0.66666669       0.66666669       0.66666669       0.66666669       0.66666669       0.66666669       0.66666669       0.66666669       0.66666669       0.66666669       0.66666669       0.66666669       0.66666669       0.66666669       0.66666669       0.66666669       0.66666669       0.66666669       0.66666669
           0.66666669       0.66666669       0.66666669       0.66666669       0.66666669       0.66666669       0.66666669       0.66666669       0.66666669       0.66666669       0.66666669       0.66666669       0.66666669       0.66666669       0.66666669       0.66666669       0.66666669       0.66666669       0.66666669       0.66666669
           0.66666669       0.66666669       0.66666669       0.66666669       0.66666669       0.66666669       0.66666669       0.66666669       0.66666669       0.66666669       0.66666669       0.66666669       0.66666669       0.66666669       0.66666669       0.66666669       0.66666669       0.66666669       0.66666669       0.66666669
           0.66666669       0.66666669       0.66666669       0.66666669       0.66666669       0.66666669       0.66666669       0.66666669       0.66666669       0.66666669       0.66666669       0.66666669       0.66666669       0.66666669       0.66666669       0.66666669       0.66666669       0.66666669       0.66666669       0.66666669
           0.66666669       0.66666669       0.66666669       0.66666669       0.66666669       0.66666669       0.66666669       0.66666669       0.66666669       0.66666669       0.66666669       0.66666669       0.66666669       0.66666669       0.66666669       0.66666669       0.66666669       0.66666669       0.66666669       0.66666669
           0.66666669       0.66666669       0.66666669       0.66666669       0.66666669       0.66666669       0.66666669       0.66666669       0.66666669       0.66666669       0.66666669       0.66666669       0.66666669       0.66666669       0.66666669       0.66666669       0.66666669       0.66666669       0.66666669       0.66666669
           0.66666669       0.66666669       0.66666669       0.66666669       0.66666669       0.66666669       0.66666669       0.66666669       0.66666669       0.66666669       0.66666669       0.66666669       0.66666669       0.66666669       0.66666669       0.66666669       0.66666669       0.66666669       0.66666669       0.66666669
           0.66666669       0.66666669       0.66666669       0.66666669       0.66666669       0.66666669       0.66666669       0.66666669       0.66666669       0.66666669       0.66666669       0.66666669       0.66666669       0.66666669       0.66666669       0.66666669       0.66666669       0.66666669       0.66666669       0.66666669
           0.66666669       0.66666669       0.66666669       0.66666669       0.66666669       0.66666669       0.66666669       0.66666669       0.66666669       0.66666669       0.66666669       0.66666669       0.66666669       0.66666669       0.66666669       0.66666669       0.66666669       0.66666669       0.66666669       0.66666669
           0.66666669       0.66666669       0.66666669       0.66666669       0.66666669       0.66666669       0.66666669       0.66666669       0.66666669       0.66666669       0.66666669       0.66666669       0.66666669       0.66666669       0.66666669       0.66666669       0.66666669       0.66666669       0.66666669       0.66666669
           0.66666669       0.66666669       0.66666669       0.66666669       0.66666669       0.66666669       0.66666669       0.66666669       0.66666669       0.66666669       0.66666669       0.66666669       0.66666669       0.66666669       0.66666669       0.66666669       0.66666669       0.66666669       0.66666669       0.66666669
           0.66666669       0.66666669       0.66666669       0.66666669       0.66666669       0.66666669       0.66666669       0.66666669       0.66666669       0.66666669       0.66666669       0.66666669       0.66666669       0.66666669       0.66666669       0.66666669       0.66666669       0.66666669       0.66666669       0.66666669
           0.66666669       0.66666669       0.66666669       0.66666669       0.66666669       0.66666669       0.66666669       0.66666669       0.66666669       0.66666669       0.66666669       0.66666669       0.66666669       0.66666669       0.66666669       0.66666669       0.66666669       0.66666669       0.66666669       0.66666669
           0.66666669       0.66666669       0.66666669       0.66666669       0.66666669       0.66666669       0.66666669       0.66666669       0.66666669       0.66666669       0.66666669       0.66666669       0.66666669       0.66666669       0.66666669       0.66666669       0.66666669       0.66666669       0.66666669       0.66666669
           0.66666669       0.66666669       0.66666669       0.66666669       0.66666669       0.66666669       0.66666669       0.66666669       0.66666669       0.66666669       0.66666669       0.66666669       0.66666669       0.66666669       0.66666669       0.66666669       0.66666669       0.66666669       0.66666669       0.66666669
           0.66666669       0.66666669       0.66666669       0.66666669       0.66666669       0.66666669       0.66666669       0.66666669       0.66666669       0.66666669       0.66666669       0.66666669       0.66666669       0.66666669       0.66666669       0.66666669       0.66666669       0.66666669       0.66666669       0.66666669
           0.66666669       0.66666669       0.66666669       0.66666669       0.66666669       0.66666669       0.66666669       0.66666669       0.66666669       0.66666669       0.66666669       0.66666669       0.66666669       0.66666669       0.66666669       0.66666669       0.66666669       0.66666669       0.66666669       0.66666669
           0.66666669       0.66666669       0.66666669       0.66666669       0.66666669       0.66666669       0.66666669       0.66666669       0.66666669       0.66666669       0.66666669       0.66666669       0.66666669       0.66666669       0.66666669       0.66666669       0.66666669       0.66666669       0.66666669       0.66666669
           0.66666669       0.66666669       0.66666669       0.66666669       0.66666669       0.66666669       0.66666669       0.66666669       0.66666669       0.66666669       0.66666669       0.66666669       0.66666669       0.66666669       0.66666669       0.66666669       0.66666669       0.66666669       0.66666669       0.66666669
           0.66666669       0.66666669       0.66666669       0.66666669       0.66666669       0.66666669       0.66666669       0.66666669       0.66666669       0.66666669       0.66666669       0.66666669       0.66666669       0.66666669       0.66666669       0.66666669       0.66666669       0.66666669       0.66666669       0.66666669
           0.66666669       0.66666669       0.66666669       0.66666669       0.66666669       0.66666669       0.66666669       0.66666669       0.66666669       0.66666669       0.66666669       0.66666669       0.66666669       0.66666669       0.66666669       0.66666669
    INTERNAL  FACTOR  1.0
           0.33333334       0.33333334       0.33333334       0.33333334       0.33333334       0.33333334       0.33333334       0.33333334       0.33333334       0.33333334       0.33333334       0.33333334       0.33333334       0.33333334       0.33333334       0.33333334       0.33333334       0.33333334       0.33333334       0.33333334
           0.33333334       0.33333334       0.33333334       0.33333334       0.33333334       0.33333334       0.33333334       0.33333334       0.33333334       0.33333334       0.33333334       0.33333334       0.33333334       0.33333334       0.33333334       0.33333334       0.33333334       0.33333334       0.33333334       0.33333334
           0.33333334       0.33333334       0.33333334       0.33333334       0.33333334       0.33333334       0.33333334       0.33333334       0.33333334       0.33333334       0.33333334       0.33333334       0.33333334       0.33333334       0.33333334       0.33333334       0.33333334       0.33333334       0.33333334       0.33333334
           0.33333334       0.33333334       0.33333334       0.33333334       0.33333334       0.33333334       0.33333334       0.33333334       0.33333334       0.33333334       0.33333334       0.33333334       0.33333334       0.33333334       0.33333334       0.33333334       0.33333334       0.33333334       0.33333334       0.33333334
           0.33333334       0.33333334       0.33333334       0.33333334       0.33333334       0.33333334       0.33333334       0.33333334       0.33333334       0.33333334       0.33333334       0.33333334       0.33333334       0.33333334       0.33333334       0.33333334       0.33333334       0.33333334       0.33333334       0.33333334
           0.33333334       0.33333334       0.33333334       0.33333334       0.33333334       0.33333334       0.33333334       0.33333334       0.33333334       0.33333334       0.33333334       0.33333334       0.33333334       0.33333334       0.33333334       0.33333334       0.33333334       0.33333334       0.33333334       0.33333334
           0.33333334       0.33333334       0.33333334       0.33333334       0.33333334       0.33333334       0.33333334       0.33333334       0.33333334       0.33333334       0.33333334       0.33333334       0.33333334       0.33333334       0.33333334       0.33333334       0.33333334       0.33333334       0.33333334       0.33333334
           0.33333334       0.33333334       0.33333334       0.33333334       0.33333334       0.33333334       0.33333334       0.33333334       0.33333334       0.33333334       0.33333334       0.33333334       0.33333334       0.33333334       0.33333334       0.33333334       0.33333334       0.33333334       0.33333334       0.33333334
           0.33333334       0.33333334       0.33333334       0.33333334       0.33333334       0.33333334       0.33333334       0.33333334       0.33333334       0.33333334       0.33333334       0.33333334       0.33333334       0.33333334       0.33333334       0.33333334       0.33333334       0.33333334       0.33333334       0.33333334
           0.33333334       0.33333334       0.33333334       0.33333334       0.33333334       0.33333334       0.33333334       0.33333334       0.33333334       0.33333334       0.33333334       0.33333334       0.33333334       0.33333334       0.33333334       0.33333334       0.33333334       0.33333334       0.33333334       0.33333334
           0.33333334       0.33333334       0.33333334       0.33333334       0.33333334       0.33333334       0.33333334       0.33333334       0.33333334       0.33333334       0.33333334       0.33333334       0.33333334       0.33333334       0.33333334       0.33333334       0.33333334       0.33333334       0.33333334       0.33333334
           0.33333334       0.33333334       0.33333334       0.33333334       0.33333334       0.33333334       0.33333334       0.33333334       0.33333334       0.33333334       0.33333334       0.33333334       0.33333334       0.33333334       0.33333334       0.33333334       0.33333334       0.33333334       0.33333334       0.33333334
           0.33333334       0.33333334       0.33333334       0.33333334       0.33333334       0.33333334       0.33333334       0.33333334       0.33333334       0.33333334       0.33333334       0.33333334       0.33333334       0.33333334       0.33333334       0.33333334       0.33333334       0.33333334       0.33333334       0.33333334
           0.33333334       0.33333334       0.33333334       0.33333334       0.33333334       0.33333334       0.33333334       0.33333334       0.33333334       0.33333334       0.33333334       0.33333334       0.33333334       0.33333334       0.33333334       0.33333334       0.33333334       0.33333334       0.33333334       0.33333334
           0.33333334       0.33333334       0.33333334       0.33333334       0.33333334       0.33333334       0.33333334       0.33333334       0.33333334       0.33333334       0.33333334       0.33333334       0.33333334       0.33333334       0.33333334       0.33333334       0.33333334       0.33333334       0.33333334       0.33333334
           0.33333334       0.33333334       0.33333334       0.33333334       0.33333334       0.33333334       0.33333334       0.33333334       0.33333334       0.33333334       0.33333334       0.33333334       0.33333334       0.33333334       0.33333334       0.33333334       0.33333334       0.33333334       0.33333334       0.33333334
           0.33333334       0.33333334       0.33333334       0.33333334       0.33333334       0.33333334       0.33333334       0.33333334       0.33333334       0.33333334       0.33333334       0.33333334       0.33333334       0.33333334       0.33333334       0.33333334       0.33333334       0.33333334       0.33333334       0.33333334
           0.33333334       0.33333334       0.33333334       0.33333334       0.33333334       0.33333334       0.33333334       0.33333334       0.33333334       0.33333334       0.33333334       0.33333334       0.33333334       0.33333334       0.33333334       0.33333334       0.33333334       0.33333334       0.33333334       0.33333334
           0.33333334       0.33333334       0.33333334       0.33333334       0.33333334       0.33333334       0.33333334       0.33333334       0.33333334       0.33333334       0.33333334       0.33333334       0.33333334       0.33333334       0.33333334       0.33333334       0.33333334       0.33333334       0.33333334       0.33333334
           0.33333334       0.33333334       0.33333334       0.33333334       0.33333334       0.33333334       0.33333334       0.33333334       0.33333334       0.33333334       0.33333334       0.33333334       0.33333334       0.33333334       0.33333334       0.33333334       0.33333334       0.33333334       0.33333334       0.33333334
           0.33333334       0.33333334       0.33333334       0.33333334       0.33333334       0.33333334       0.33333334       0.33333334       0.33333334       0.33333334       0.33333334       0.33333334       0.33333334       0.33333334       0.33333334       0.33333334       0.33333334       0.33333334       0.33333334       0.33333334
           0.33333334       0.33333334       0.33333334       0.33333334       0.33333334       0.33333334       0.33333334       0.33333334       0.33333334       0.33333334       0.33333334       0.33333334       0.33333334       0.33333334       0.33333334       0.33333334
    INTERNAL  FACTOR  1.0
           0.00000000       0.00000000       0.00000000       0.00000000       0.00000000       0.00000000       0.00000000       0.00000000       0.00000000       0.00000000       0.00000000       0.00000000       0.00000000       0.00000000       0.00000000       0.00000000       0.00000000       0.00000000       0.00000000       0.00000000
           0.00000000       0.00000000       0.00000000       0.00000000       0.00000000       0.00000000       0.00000000       0.00000000       0.00000000       0.00000000       0.00000000       0.00000000       0.00000000       0.00000000       0.00000000       0.00000000       0.00000000       0.00000000       0.00000000       0.00000000
           0.00000000       0.00000000       0.00000000       0.00000000       0.00000000       0.00000000       0.00000000       0.00000000       0.00000000       0.00000000       0.00000000       0.00000000       0.00000000       0.00000000       0.00000000       0.00000000       0.00000000       0.00000000       0.00000000       0.00000000
           0.00000000       0.00000000       0.00000000       0.00000000       0.00000000       0.00000000       0.00000000       0.00000000       0.00000000       0.00000000       0.00000000       0.00000000       0.00000000       0.00000000       0.00000000       0.00000000       0.00000000       0.00000000       0.00000000       0.00000000
           0.00000000       0.00000000       0.00000000       0.00000000       0.00000000       0.00000000       0.00000000       0.00000000       0.00000000       0.00000000       0.00000000       0.00000000       0.00000000       0.00000000       0.00000000       0.00000000       0.00000000       0.00000000       0.00000000       0.00000000
           0.00000000       0.00000000       0.00000000       0.00000000       0.00000000       0.00000000       0.00000000       0.00000000       0.00000000       0.00000000       0.00000000       0.00000000       0.00000000       0.00000000       0.00000000       0.00000000       0.00000000       0.00000000       0.00000000       0.00000000
           0.00000000       0.00000000       0.00000000       0.00000000       0.00000000       0.00000000       0.00000000       0.00000000       0.00000000       0.00000000       0.00000000       0.00000000       0.00000000       0.00000000       0.00000000       0.00000000       0.00000000       0.00000000       0.00000000       0.00000000
           0.00000000       0.00000000       0.00000000       0.00000000       0.00000000       0.00000000       0.00000000       0.00000000       0.00000000       0.00000000       0.00000000       0.00000000       0.00000000       0.00000000       0.00000000       0.00000000       0.00000000       0.00000000       0.00000000       0.00000000
           0.00000000       0.00000000       0.00000000       0.00000000       0.00000000       0.00000000       0.00000000       0.00000000       0.00000000       0.00000000       0.00000000       0.00000000       0.00000000       0.00000000       0.00000000       0.00000000       0.00000000       0.00000000       0.00000000       0.00000000
           0.00000000       0.00000000       0.00000000       0.00000000       0.00000000       0.00000000       0.00000000       0.00000000       0.00000000       0.00000000       0.00000000       0.00000000       0.00000000       0.00000000       0.00000000       0.00000000       0.00000000       0.00000000       0.00000000       0.00000000
           0.00000000       0.00000000       0.00000000       0.00000000       0.00000000       0.00000000       0.00000000       0.00000000       0.00000000       0.00000000       0.00000000       0.00000000       0.00000000       0.00000000       0.00000000       0.00000000       0.00000000       0.00000000       0.00000000       0.00000000
           0.00000000       0.00000000       0.00000000       0.00000000       0.00000000       0.00000000       0.00000000       0.00000000       0.00000000       0.00000000       0.00000000       0.00000000       0.00000000       0.00000000       0.00000000       0.00000000       0.00000000       0.00000000       0.00000000       0.00000000
           0.00000000       0.00000000       0.00000000       0.00000000       0.00000000       0.00000000       0.00000000       0.00000000       0.00000000       0.00000000       0.00000000       0.00000000       0.00000000       0.00000000       0.00000000       0.00000000       0.00000000       0.00000000       0.00000000       0.00000000
           0.00000000       0.00000000       0.00000000       0.00000000       0.00000000       0.00000000       0.00000000       0.00000000       0.00000000       0.00000000       0.00000000       0.00000000       0.00000000       0.00000000       0.00000000       0.00000000       0.00000000       0.00000000       0.00000000       0.00000000
           0.00000000       0.00000000       0.00000000       0.00000000       0.00000000       0.00000000       0.00000000       0.00000000       0.00000000       0.00000000       0.00000000       0.00000000       0.00000000       0.00000000       0.00000000       0.00000000       0.00000000       0.00000000       0.00000000       0.00000000
           0.00000000       0.00000000       0.00000000       0.00000000       0.00000000       0.00000000       0.00000000       0.00000000       0.00000000       0.00000000       0.00000000       0.00000000       0.00000000       0.00000000       0.00000000       0.00000000       0.00000000       0.00000000       0.00000000       0.00000000
           0.00000000       0.00000000       0.00000000       0.00000000       0.00000000       0.00000000       0.00000000       0.00000000       0.00000000       0.00000000       0.00000000       0.00000000       0.00000000       0.00000000       0.00000000       0.00000000       0.00000000       0.00000000       0.00000000       0.00000000
           0.00000000       0.00000000       0.00000000       0.00000000       0.00000000       0.00000000       0.00000000       0.00000000       0.00000000       0.00000000       0.00000000       0.00000000       0.00000000       0.00000000       0.00000000       0.00000000       0.00000000       0.00000000       0.00000000       0.00000000
           0.00000000       0.00000000       0.00000000       0.00000000       0.00000000       0.00000000       0.00000000       0.00000000       0.00000000       0.00000000       0.00000000       0.00000000       0.00000000       0.00000000       0.00000000       0.00000000       0.00000000       0.00000000       0.00000000       0.00000000
           0.00000000       0.00000000       0.00000000       0.00000000       0.00000000       0.00000000       0.00000000       0.00000000       0.00000000       0.00000000       0.00000000       0.00000000       0.00000000       0.00000000       0.00000000       0.00000000       0.00000000       0.00000000       0.00000000       0.00000000