# BAS6 package for MODFLOW-USG generated by Flopy 3.8.2
FREE
CONSTANT          1                                #ibound layer 1                
CONSTANT          1                                #ibound layer 2                
CONSTANT          1                                #ibound layer 3                
   -999.99
CONSTANT    1.000000E+00                           #strt layer 1                  
CONSTANT    1.000000E+00                           #strt layer 2                  
CONSTANT    1.000000E+00                           #strt layer 3                  
