# Name file for MODFLOW-USG, generated by Flopy version 3.8.2.
#xll:0.0; yll:0.0; rotation:0.0; units:meters; lenuni:2; start_datetime:None
LIST               2  mymodel.list
DISU              11  mymodel.disu
BAS6              13  mymodel.bas
LPF               15  mymodel.lpf
CHD               24  mymodel.chd
SMS               32  mymodel.sms
OC                14  mymodel.oc
DATA(BINARY)      51  mymodel.hds REPLACE
