# CHD package for MODFLOW-USG generated by Flopy 3.8.2
         2
         2         0 # stress period 1
         1             1.0             1.0
       436             0.0             0.0
